{
   "completed_at" : "20170710T193805Z",
   "completed_status" : "Success",
   "created_at" : "2017-07-10 19:35:54 +0000",
   "current_step" : 5,
   "description" : "",
   "eplusout_err" : "Program Version,EnergyPlus, Version 8.7.0-78a111df4a, YMD=2017.07.10 19:37,IDD_Version 8.7.0\n   ************* IDF Context for following error/warning message:\n   ************* Note -- lines truncated at 300 characters, if necessary...\n   *************      5 Building,\n   ************* indicated Name=NECB 2011-RetailStandalone-NECB HDD Method-CAN_BC_Prince.Rupert.718980_CWEC.epw created: 2017-07-10 19:36:00 +0000\n   ************* Only last 1 lines before error line shown.....\n   *************      6   NECB 2011-RetailStandalone-NECB HDD Method-CAN_BC_Prince.Rupert.718980_CWEC.epw created: 2017-07-10 19:36:00 +0000, !- Name\n   ** Warning ** IP: IDF line~6 Alpha Argument length exceeds maximum, will be truncated=  NECB 2011-RetailStandalone-NECB HDD Method-CAN_BC_Prince.Rupert.718980_CWEC.epw created: 2017-07-10 19:36:00 +000\n   **   ~~~   ** Will be processed as Alpha=NECB 2011-RETAILSTANDALONE-NECB HDD METHOD-CAN_BC_PRINCE.RUPERT.718980_CWEC.EPW CREATED: 2017-07-10 19:36:00 +0000\n   ************* Beginning Zone Sizing Calculations\n   ** Warning ** ProcessScheduleInput: Schedule:Day:Interval=\"ECONOMIZER MAX OA FRACTION 100 PCT DEFAULT\", Blank Schedule Type Limits Name input -- will not be validated.\n   ** Warning ** ProcessScheduleInput: Schedule:Day:Interval=\"SCHEDULE DAY 1\", Blank Schedule Type Limits Name input -- will not be validated.\n   ** Warning ** ProcessScheduleInput: Schedule:Day:Interval=\"SCHEDULE DAY 10\", Blank Schedule Type Limits Name input -- will not be validated.\n   ** Warning ** ProcessScheduleInput: Schedule:Day:Interval=\"SCHEDULE DAY 11\", Blank Schedule Type Limits Name input -- will not be validated.\n   ** Warning ** ProcessScheduleInput: Schedule:Day:Interval=\"SCHEDULE DAY 12\", Blank Schedule Type Limits Name input -- will not be validated.\n   ** Warning ** ProcessScheduleInput: Schedule:Day:Interval=\"SCHEDULE DAY 13\", Blank Schedule Type Limits Name input -- will not be validated.\n   ** Warning ** ProcessScheduleInput: Schedule:Day:Interval=\"SCHEDULE DAY 14\", Blank Schedule Type Limits Name input -- will not be validated.\n   ** Warning ** ProcessScheduleInput: Schedule:Day:Interval=\"SCHEDULE DAY 15\", Blank Schedule Type Limits Name input -- will not be validated.\n   ** Warning ** ProcessScheduleInput: Schedule:Day:Interval=\"SCHEDULE DAY 16\", Blank Schedule Type Limits Name input -- will not be validated.\n   ** Warning ** ProcessScheduleInput: Schedule:Day:Interval=\"SCHEDULE DAY 17\", Blank Schedule Type Limits Name input -- will not be validated.\n   ** Warning ** ProcessScheduleInput: Schedule:Day:Interval=\"SCHEDULE DAY 18\", Blank Schedule Type Limits Name input -- will not be validated.\n   ** Warning ** ProcessScheduleInput: Schedule:Day:Interval=\"SCHEDULE DAY 19\", Blank Schedule Type Limits Name input -- will not be validated.\n   ** Warning ** ProcessScheduleInput: Schedule:Day:Interval=\"SCHEDULE DAY 2\", Blank Schedule Type Limits Name input -- will not be validated.\n   ** Warning ** ProcessScheduleInput: Schedule:Day:Interval=\"SCHEDULE DAY 20\", Blank Schedule Type Limits Name input -- will not be validated.\n   ** Warning ** ProcessScheduleInput: Schedule:Day:Interval=\"SCHEDULE DAY 21\", Blank Schedule Type Limits Name input -- will not be validated.\n   ** Warning ** ProcessScheduleInput: Schedule:Day:Interval=\"SCHEDULE DAY 22\", Blank Schedule Type Limits Name input -- will not be validated.\n   ** Warning ** ProcessScheduleInput: Schedule:Day:Interval=\"SCHEDULE DAY 23\", Blank Schedule Type Limits Name input -- will not be validated.\n   ** Warning ** ProcessScheduleInput: Schedule:Day:Interval=\"SCHEDULE DAY 24\", Blank Schedule Type Limits Name input -- will not be validated.\n   ** Warning ** ProcessScheduleInput: Schedule:Day:Interval=\"SCHEDULE DAY 5\", Blank Schedule Type Limits Name input -- will not be validated.\n   ** Warning ** ProcessScheduleInput: Schedule:Day:Interval=\"SCHEDULE DAY 6\", Blank Schedule Type Limits Name input -- will not be validated.\n   ** Warning ** ProcessScheduleInput: Schedule:Day:Interval=\"SCHEDULE DAY 7\", Blank Schedule Type Limits Name input -- will not be validated.\n   ** Warning ** ProcessScheduleInput: Schedule:Day:Interval=\"SCHEDULE DAY 8\", Blank Schedule Type Limits Name input -- will not be validated.\n   ** Warning ** ProcessScheduleInput: Schedule:Day:Interval=\"SCHEDULE DAY 9\", Blank Schedule Type Limits Name input -- will not be validated.\n   ** Warning ** ProcessScheduleInput: Schedule:Year=\"ECONOMIZER MAX OA FRACTION 100 PCT\", Blank Schedule Type Limits Name input -- will not be validated.\n   ** Warning ** ProcessScheduleInput: Schedule:Year=\"SCHEDULE RULESET 10\", Blank Schedule Type Limits Name input -- will not be validated.\n   ** Warning ** ProcessScheduleInput: Schedule:Year=\"SCHEDULE RULESET 11\", Blank Schedule Type Limits Name input -- will not be validated.\n   ** Warning ** ProcessScheduleInput: Schedule:Year=\"SCHEDULE RULESET 12\", Blank Schedule Type Limits Name input -- will not be validated.\n   ** Warning ** ProcessScheduleInput: Schedule:Year=\"SCHEDULE RULESET 13\", Blank Schedule Type Limits Name input -- will not be validated.\n   ** Warning ** ProcessScheduleInput: Schedule:Year=\"SCHEDULE RULESET 14\", Blank Schedule Type Limits Name input -- will not be validated.\n   ** Warning ** ProcessScheduleInput: Schedule:Year=\"SCHEDULE RULESET 3\", Blank Schedule Type Limits Name input -- will not be validated.\n   ** Warning ** ProcessScheduleInput: Schedule:Year=\"SCHEDULE RULESET 4\", Blank Schedule Type Limits Name input -- will not be validated.\n   ** Warning ** ProcessScheduleInput: Schedule:Year=\"SCHEDULE RULESET 5\", Blank Schedule Type Limits Name input -- will not be validated.\n   ** Warning ** ProcessScheduleInput: Schedule:Year=\"SCHEDULE RULESET 6\", Blank Schedule Type Limits Name input -- will not be validated.\n   ** Warning ** ProcessScheduleInput: Schedule:Year=\"SCHEDULE RULESET 7\", Blank Schedule Type Limits Name input -- will not be validated.\n   ** Warning ** ProcessScheduleInput: Schedule:Year=\"SCHEDULE RULESET 8\", Blank Schedule Type Limits Name input -- will not be validated.\n   ** Warning ** ProcessScheduleInput: Schedule:Year=\"SCHEDULE RULESET 9\", Blank Schedule Type Limits Name input -- will not be validated.\n   ** Warning ** ProcessScheduleInput: Schedule:Constant=\"ALWAYS OFF DISCRETE\", Blank Schedule Type Limits Name input -- will not be validated.\n   ** Warning ** ProcessScheduleInput: Schedule:Constant=\"ALWAYS ON CONTINUOUS\", Blank Schedule Type Limits Name input -- will not be validated.\n   ** Warning ** CheckUsedConstructions: There are 25 nominally unused constructions in input.\n   **   ~~~   ** For explicit details on each unused construction, use Output:Diagnostics,DisplayExtraWarnings;\n   ** Severe  ** Problem in interior solar distribution calculation (CHKBKS)\n   **   ~~~   **    Solar Distribution = FullInteriorExterior will not work in Zone=SP-CORE_RETAIL SYS-3 FLR-1 SCH-C HPLCMT-EAST ZN\n   **   ~~~   **    because vertex 2 of back surface=CORE_RETAIL_WALL_EAST_1 is in front of receiving surface=CORE_RETAIL_ROOF\n   **   ~~~   **    (Dot Product indicator=459.6689)\n   **   ~~~   **    Check surface geometry; if OK, use Solar Distribution = FullExterior instead.\n   ** Severe  ** Problem in interior solar distribution calculation (CHKBKS)\n   **   ~~~   **    Solar Distribution = FullInteriorExterior will not work in Zone=SP-CORE_RETAIL SYS-3 FLR-1 SCH-C HPLCMT-EAST ZN\n   **   ~~~   **    because vertex 3 of back surface=CORE_RETAIL_WALL_EAST_1 is in front of receiving surface=CORE_RETAIL_ROOF\n   **   ~~~   **    (Dot Product indicator=459.6689)\n   **   ~~~   **    Check surface geometry; if OK, use Solar Distribution = FullExterior instead.\n   ** Severe  ** Problem in interior solar distribution calculation (CHKBKS)\n   **   ~~~   **    Solar Distribution = FullInteriorExterior will not work in Zone=SP-CORE_RETAIL SYS-3 FLR-1 SCH-C HPLCMT-EAST ZN\n   **   ~~~   **    because vertex 2 of back surface=CORE_RETAIL_WALL_EAST_2 is in front of receiving surface=CORE_RETAIL_ROOF\n   **   ~~~   **    (Dot Product indicator=459.6689)\n   **   ~~~   **    Check surface geometry; if OK, use Solar Distribution = FullExterior instead.\n   ** Severe  ** Problem in interior solar distribution calculation (CHKBKS)\n   **   ~~~   **    Solar Distribution = FullInteriorExterior will not work in Zone=SP-CORE_RETAIL SYS-3 FLR-1 SCH-C HPLCMT-EAST ZN\n   **   ~~~   **    because vertex 3 of back surface=CORE_RETAIL_WALL_EAST_2 is in front of receiving surface=CORE_RETAIL_ROOF\n   **   ~~~   **    (Dot Product indicator=459.6689)\n   **   ~~~   **    Check surface geometry; if OK, use Solar Distribution = FullExterior instead.\n   ** Severe  ** Problem in interior solar distribution calculation (CHKBKS)\n   **   ~~~   **    Solar Distribution = FullInteriorExterior will not work in Zone=SP-CORE_RETAIL SYS-3 FLR-1 SCH-C HPLCMT-EAST ZN\n   **   ~~~   **    because vertex 2 of back surface=CORE_RETAIL_WALL_NORTH is in front of receiving surface=CORE_RETAIL_ROOF\n   **   ~~~   **    (Dot Product indicator=459.6689)\n   **   ~~~   **    Check surface geometry; if OK, use Solar Distribution = FullExterior instead.\n   ** Severe  ** Problem in interior solar distribution calculation (CHKBKS)\n   **   ~~~   **    Solar Distribution = FullInteriorExterior will not work in Zone=SP-CORE_RETAIL SYS-3 FLR-1 SCH-C HPLCMT-EAST ZN\n   **   ~~~   **    because vertex 3 of back surface=CORE_RETAIL_WALL_NORTH is in front of receiving surface=CORE_RETAIL_ROOF\n   **   ~~~   **    (Dot Product indicator=459.6689)\n   **   ~~~   **    Check surface geometry; if OK, use Solar Distribution = FullExterior instead.\n   ** Severe  ** Problem in interior solar distribution calculation (CHKBKS)\n   **   ~~~   **    Solar Distribution = FullInteriorExterior will not work in Zone=SP-CORE_RETAIL SYS-3 FLR-1 SCH-C HPLCMT-EAST ZN\n   **   ~~~   **    because vertex 2 of back surface=CORE_RETAIL_WALL_SOUTH_1 is in front of receiving surface=CORE_RETAIL_ROOF\n   **   ~~~   **    (Dot Product indicator=459.6689)\n   **   ~~~   **    Check surface geometry; if OK, use Solar Distribution = FullExterior instead.\n   ** Severe  ** Problem in interior solar distribution calculation (CHKBKS)\n   **   ~~~   **    Solar Distribution = FullInteriorExterior will not work in Zone=SP-CORE_RETAIL SYS-3 FLR-1 SCH-C HPLCMT-EAST ZN\n   **   ~~~   **    because vertex 3 of back surface=CORE_RETAIL_WALL_SOUTH_1 is in front of receiving surface=CORE_RETAIL_ROOF\n   **   ~~~   **    (Dot Product indicator=459.6689)\n   **   ~~~   **    Check surface geometry; if OK, use Solar Distribution = FullExterior instead.\n   ** Severe  ** Problem in interior solar distribution calculation (CHKBKS)\n   **   ~~~   **    Solar Distribution = FullInteriorExterior will not work in Zone=SP-CORE_RETAIL SYS-3 FLR-1 SCH-C HPLCMT-EAST ZN\n   **   ~~~   **    because vertex 2 of back surface=CORE_RETAIL_WALL_SOUTH_2 is in front of receiving surface=CORE_RETAIL_ROOF\n   **   ~~~   **    (Dot Product indicator=459.6689)\n   **   ~~~   **    Check surface geometry; if OK, use Solar Distribution = FullExterior instead.\n   ** Severe  ** Problem in interior solar distribution calculation (CHKBKS)\n   **   ~~~   **    Solar Distribution = FullInteriorExterior will not work in Zone=SP-CORE_RETAIL SYS-3 FLR-1 SCH-C HPLCMT-EAST ZN\n   **   ~~~   **    because vertex 3 of back surface=CORE_RETAIL_WALL_SOUTH_2 is in front of receiving surface=CORE_RETAIL_ROOF\n   **   ~~~   **    (Dot Product indicator=459.6689)\n   **   ~~~   **    Check surface geometry; if OK, use Solar Distribution = FullExterior instead.\n   ** Severe  ** Problem in interior solar distribution calculation (CHKBKS)\n   **   ~~~   **    Solar Distribution = FullInteriorExterior will not work in Zone=SP-CORE_RETAIL SYS-3 FLR-1 SCH-C HPLCMT-EAST ZN\n   **   ~~~   **    because vertex 2 of back surface=CORE_RETAIL_WALL_SOUTH_3 is in front of receiving surface=CORE_RETAIL_ROOF\n   **   ~~~   **    (Dot Product indicator=459.6689)\n   **   ~~~   **    Check surface geometry; if OK, use Solar Distribution = FullExterior instead.\n   ** Severe  ** Problem in interior solar distribution calculation (CHKBKS)\n   **   ~~~   **    Solar Distribution = FullInteriorExterior will not work in Zone=SP-CORE_RETAIL SYS-3 FLR-1 SCH-C HPLCMT-EAST ZN\n   **   ~~~   **    because vertex 3 of back surface=CORE_RETAIL_WALL_SOUTH_3 is in front of receiving surface=CORE_RETAIL_ROOF\n   **   ~~~   **    (Dot Product indicator=459.6689)\n   **   ~~~   **    Check surface geometry; if OK, use Solar Distribution = FullExterior instead.\n   ** Severe  ** Problem in interior solar distribution calculation (CHKBKS)\n   **   ~~~   **    Solar Distribution = FullInteriorExterior will not work in Zone=SP-CORE_RETAIL SYS-3 FLR-1 SCH-C HPLCMT-EAST ZN\n   **   ~~~   **    because vertex 2 of back surface=CORE_RETAIL_WALL_WEST_1 is in front of receiving surface=CORE_RETAIL_ROOF\n   **   ~~~   **    (Dot Product indicator=459.6689)\n   **   ~~~   **    Check surface geometry; if OK, use Solar Distribution = FullExterior instead.\n   ** Severe  ** Problem in interior solar distribution calculation (CHKBKS)\n   **   ~~~   **    Solar Distribution = FullInteriorExterior will not work in Zone=SP-CORE_RETAIL SYS-3 FLR-1 SCH-C HPLCMT-EAST ZN\n   **   ~~~   **    because vertex 3 of back surface=CORE_RETAIL_WALL_WEST_1 is in front of receiving surface=CORE_RETAIL_ROOF\n   **   ~~~   **    (Dot Product indicator=459.6689)\n   **   ~~~   **    Check surface geometry; if OK, use Solar Distribution = FullExterior instead.\n   ** Severe  ** Problem in interior solar distribution calculation (CHKBKS)\n   **   ~~~   **    Solar Distribution = FullInteriorExterior will not work in Zone=SP-CORE_RETAIL SYS-3 FLR-1 SCH-C HPLCMT-EAST ZN\n   **   ~~~   **    because vertex 2 of back surface=CORE_RETAIL_WALL_WEST_2 is in front of receiving surface=CORE_RETAIL_ROOF\n   **   ~~~   **    (Dot Product indicator=459.6689)\n   **   ~~~   **    Check surface geometry; if OK, use Solar Distribution = FullExterior instead.\n   ** Severe  ** Problem in interior solar distribution calculation (CHKBKS)\n   **   ~~~   **    Solar Distribution = FullInteriorExterior will not work in Zone=SP-CORE_RETAIL SYS-3 FLR-1 SCH-C HPLCMT-EAST ZN\n   **   ~~~   **    because vertex 3 of back surface=CORE_RETAIL_WALL_WEST_2 is in front of receiving surface=CORE_RETAIL_ROOF\n   **   ~~~   **    (Dot Product indicator=459.6689)\n   **   ~~~   **    Check surface geometry; if OK, use Solar Distribution = FullExterior instead.\n   ** Severe  ** Problem in interior solar distribution calculation (CHKBKS)\n   **   ~~~   **    Solar Distribution = FullInteriorExterior will not work in Zone=SP-CORE_RETAIL SYS-3 FLR-1 SCH-C HPLCMT-EAST ZN\n   **   ~~~   **    because vertex 1 of back surface=CORE_RETAIL_FLOOR is in front of receiving surface=CORE_RETAIL_ROOF\n   **   ~~~   **    (Dot Product indicator=459.6689)\n   **   ~~~   **    Check surface geometry; if OK, use Solar Distribution = FullExterior instead.\n   ** Severe  ** Problem in interior solar distribution calculation (CHKBKS)\n   **   ~~~   **    Solar Distribution = FullInteriorExterior will not work in Zone=SP-CORE_RETAIL SYS-3 FLR-1 SCH-C HPLCMT-EAST ZN\n   **   ~~~   **    because vertex 2 of back surface=CORE_RETAIL_FLOOR is in front of receiving surface=CORE_RETAIL_ROOF\n   **   ~~~   **    (Dot Product indicator=459.6689)\n   **   ~~~   **    Check surface geometry; if OK, use Solar Distribution = FullExterior instead.\n   ** Severe  ** Problem in interior solar distribution calculation (CHKBKS)\n   **   ~~~   **    Solar Distribution = FullInteriorExterior will not work in Zone=SP-CORE_RETAIL SYS-3 FLR-1 SCH-C HPLCMT-EAST ZN\n   **   ~~~   **    because vertex 3 of back surface=CORE_RETAIL_FLOOR is in front of receiving surface=CORE_RETAIL_ROOF\n   **   ~~~   **    (Dot Product indicator=459.6689)\n   **   ~~~   **    Check surface geometry; if OK, use Solar Distribution = FullExterior instead.\n   ** Severe  ** Problem in interior solar distribution calculation (CHKBKS)\n   **   ~~~   **    Solar Distribution = FullInteriorExterior will not work in Zone=SP-CORE_RETAIL SYS-3 FLR-1 SCH-C HPLCMT-EAST ZN\n   **   ~~~   **    because vertex 4 of back surface=CORE_RETAIL_FLOOR is in front of receiving surface=CORE_RETAIL_ROOF\n   **   ~~~   **    (Dot Product indicator=459.6689)\n   **   ~~~   **    Check surface geometry; if OK, use Solar Distribution = FullExterior instead.\n   ** Severe  ** Problem in interior solar distribution calculation (CHKBKS)\n   **   ~~~   **    Solar Distribution = FullInteriorExterior will not work in Zone=SP-CORE_RETAIL SYS-3 FLR-1 SCH-C HPLCMT-EAST ZN\n   **   ~~~   **    because vertex 5 of back surface=CORE_RETAIL_FLOOR is in front of receiving surface=CORE_RETAIL_ROOF\n   **   ~~~   **    (Dot Product indicator=459.6689)\n   **   ~~~   **    Check surface geometry; if OK, use Solar Distribution = FullExterior instead.\n   ** Severe  ** Problem in interior solar distribution calculation (CHKBKS)\n   **   ~~~   **    Solar Distribution = FullInteriorExterior will not work in Zone=SP-CORE_RETAIL SYS-3 FLR-1 SCH-C HPLCMT-EAST ZN\n   **   ~~~   **    because vertex 6 of back surface=CORE_RETAIL_FLOOR is in front of receiving surface=CORE_RETAIL_ROOF\n   **   ~~~   **    (Dot Product indicator=459.6689)\n   **   ~~~   **    Check surface geometry; if OK, use Solar Distribution = FullExterior instead.\n   ** Severe  ** Problem in interior solar distribution calculation (CHKBKS)\n   **   ~~~   **    Solar Distribution = FullInteriorExterior will not work in Zone=SP-CORE_RETAIL SYS-3 FLR-1 SCH-C HPLCMT-EAST ZN\n   **   ~~~   **    because vertex 7 of back surface=CORE_RETAIL_FLOOR is in front of receiving surface=CORE_RETAIL_ROOF\n   **   ~~~   **    (Dot Product indicator=459.6689)\n   **   ~~~   **    Check surface geometry; if OK, use Solar Distribution = FullExterior instead.\n   ** Severe  ** Problem in interior solar distribution calculation (CHKBKS)\n   **   ~~~   **    Solar Distribution = FullInteriorExterior will not work in Zone=SP-CORE_RETAIL SYS-3 FLR-1 SCH-C HPLCMT-EAST ZN\n   **   ~~~   **    because vertex 8 of back surface=CORE_RETAIL_FLOOR is in front of receiving surface=CORE_RETAIL_ROOF\n   **   ~~~   **    (Dot Product indicator=459.6689)\n   **   ~~~   **    Check surface geometry; if OK, use Solar Distribution = FullExterior instead.\n   ************* Beginning System Sizing Calculations\n   ************* Beginning Plant Sizing Calculations\n   ** Warning ** GetDXCoils: Coil:Cooling:DX:SingleSpeed=\"COIL COOLING DX SINGLE SPEED 5 37KBTU/HR 14.0SEER\", invalid\n   **   ~~~   ** ...Part Load Fraction Correlation Curve Name = DXCOOL-NECB2011-REF-COOLPLFFPLR 4 has out of range value.\n   **   ~~~   ** ...Curve maximum must be <= 1.0, curve max at PLR = 0.99 is 1.015\n   **   ~~~   ** ...Setting curve maximum to 1.0 and simulation continues.\n   ** Warning ** GetDXCoils: Coil:Cooling:DX:SingleSpeed=\"COIL COOLING DX SINGLE SPEED 1 198KBTU/HR 9.7EER\", invalid\n   **   ~~~   ** ...Part Load Fraction Correlation Curve Name = DXCOOL-NECB2011-REF-COOLPLFFPLR has out of range value.\n   **   ~~~   ** ...Curve maximum must be <= 1.0, curve max at PLR = 0.99 is 1.015\n   **   ~~~   ** ...Setting curve maximum to 1.0 and simulation continues.\n   ** Warning ** GetDXCoils: Coil:Cooling:DX:SingleSpeed=\"COIL COOLING DX SINGLE SPEED 2 12KBTU/HR 14.0SEER\", invalid\n   **   ~~~   ** ...Part Load Fraction Correlation Curve Name = DXCOOL-NECB2011-REF-COOLPLFFPLR 1 has out of range value.\n   **   ~~~   ** ...Curve maximum must be <= 1.0, curve max at PLR = 0.99 is 1.015\n   **   ~~~   ** ...Setting curve maximum to 1.0 and simulation continues.\n   ** Warning ** GetDXCoils: Coil:Cooling:DX:SingleSpeed=\"COIL COOLING DX SINGLE SPEED 4 67KBTU/HR 9.7EER\", invalid\n   **   ~~~   ** ...Part Load Fraction Correlation Curve Name = DXCOOL-NECB2011-REF-COOLPLFFPLR 3 has out of range value.\n   **   ~~~   ** ...Curve maximum must be <= 1.0, curve max at PLR = 0.99 is 1.015\n   **   ~~~   ** ...Setting curve maximum to 1.0 and simulation continues.\n   ** Warning ** GetDXCoils: Coil:Cooling:DX:SingleSpeed=\"COIL COOLING DX SINGLE SPEED 3 66KBTU/HR 9.7EER\", invalid\n   **   ~~~   ** ...Part Load Fraction Correlation Curve Name = DXCOOL-NECB2011-REF-COOLPLFFPLR 2 has out of range value.\n   **   ~~~   ** ...Curve maximum must be <= 1.0, curve max at PLR = 0.99 is 1.015\n   **   ~~~   ** ...Setting curve maximum to 1.0 and simulation continues.\n   ** Warning ** The Standard Ratings is calculated for Coil:Cooling:DX:SingleSpeed = COIL COOLING DX SINGLE SPEED 5 37KBTU/HR 14.0SEER but not at the AHRI test condition due to curve out of bound.\n   **   ~~~   **  Review the Standard Ratings calculations in the Engineering Reference for this coil type. Also, use Output:Diagnostics, DisplayExtraWarnings for further guidance.\n   ** Warning ** The Standard Ratings is calculated for Coil:Cooling:DX:SingleSpeed = COIL COOLING DX SINGLE SPEED 1 198KBTU/HR 9.7EER but not at the AHRI test condition due to curve out of bound.\n   **   ~~~   **  Review the Standard Ratings calculations in the Engineering Reference for this coil type. Also, use Output:Diagnostics, DisplayExtraWarnings for further guidance.\n   ** Warning ** The Standard Ratings is calculated for Coil:Cooling:DX:SingleSpeed = COIL COOLING DX SINGLE SPEED 2 12KBTU/HR 14.0SEER but not at the AHRI test condition due to curve out of bound.\n   **   ~~~   **  Review the Standard Ratings calculations in the Engineering Reference for this coil type. Also, use Output:Diagnostics, DisplayExtraWarnings for further guidance.\n   ** Warning ** The Standard Ratings is calculated for Coil:Cooling:DX:SingleSpeed = COIL COOLING DX SINGLE SPEED 4 67KBTU/HR 9.7EER but not at the AHRI test condition due to curve out of bound.\n   **   ~~~   **  Review the Standard Ratings calculations in the Engineering Reference for this coil type. Also, use Output:Diagnostics, DisplayExtraWarnings for further guidance.\n   ** Warning ** The Standard Ratings is calculated for Coil:Cooling:DX:SingleSpeed = COIL COOLING DX SINGLE SPEED 3 66KBTU/HR 9.7EER but not at the AHRI test condition due to curve out of bound.\n   **   ~~~   **  Review the Standard Ratings calculations in the Engineering Reference for this coil type. Also, use Output:Diagnostics, DisplayExtraWarnings for further guidance.\n   ** Warning ** Check input. Pump nominal power or motor efficiency is set to 0, for pump=SERVICE WATER LOOP PUMP\n   ** Warning ** Output:Meter: invalid Name=\"DISTRICTCOOLING:FACILITY\" - not found.\n   ** Warning ** Output:Meter: invalid Name=\"DISTRICTHEATING:FACILITY\" - not found.\n   ** Warning ** Output:Meter:MeterFileOnly requested for \"Electricity:Facility\" (TimeStep), already on \"Output:Meter\". Will report to both eplusout.eso and eplusout.mtr\n   ************* Testing Individual Branch Integrity\n   ************* All Branches passed integrity testing\n   ************* Testing Individual Supply Air Path Integrity\n   ************* All Supply Air Paths passed integrity testing\n   ************* Testing Individual Return Air Path Integrity\n   ************* All Return Air Paths passed integrity testing\n   ************* No node connection errors were found.\n   ************* Beginning Simulation\n   ** Warning ** CalcDoe2DXCoil: Coil:Cooling:DX:SingleSpeed \"COIL COOLING DX SINGLE SPEED 2 12KBTU/HR 14.0SEER\" - Air-cooled condenser inlet dry-bulb temperature below 0 C. Outdoor dry-bulb temperature = -0.60\n   **   ~~~   **  ... Occurrence info = RUN PERIOD 1, 01/02 21:15 - 21:19\n   **   ~~~   ** ... Operation at low ambient temperatures may require special performance curves.\n   ** Warning ** CalcDoe2DXCoil: Coil:Cooling:DX:SingleSpeed \"COIL COOLING DX SINGLE SPEED 2 12KBTU/HR 14.0SEER\" - Full load outlet air dry-bulb temperature < 2C. This indicates the possibility of coil frost/freeze. Outlet temperature = 1.78 C.\n   **   ~~~   **  ...Occurrence info = RUN PERIOD 1, 01/02 21:15 - 21:19\n   **   ~~~   ** ... Possible reasons for low outlet air dry-bulb temperatures are: This DX coil\n   **   ~~~   **    1) may have a low inlet air dry-bulb temperature. Inlet air temperature = 14.399 C.\n   **   ~~~   **    2) may have a low air flow rate per watt of cooling capacity. Check inputs.\n   **   ~~~   **    3) is used as part of a HX assisted cooling coil which uses a high sensible effectiveness. Check inputs.\n   ** Warning ** CalcDoe2DXCoil: Coil:Cooling:DX:SingleSpeed \"COIL COOLING DX SINGLE SPEED 4 67KBTU/HR 9.7EER\" - Air-cooled condenser inlet dry-bulb temperature below 0 C. Outdoor dry-bulb temperature = -3.90\n   **   ~~~   **  ... Occurrence info = RUN PERIOD 1, 01/03 07:03 - 07:06\n   **   ~~~   ** ... Operation at low ambient temperatures may require special performance curves.\n   ** Warning ** CalcDoe2DXCoil: Coil:Cooling:DX:SingleSpeed \"COIL COOLING DX SINGLE SPEED 3 66KBTU/HR 9.7EER\" - Air-cooled condenser inlet dry-bulb temperature below 0 C. Outdoor dry-bulb temperature = -3.90\n   **   ~~~   **  ... Occurrence info = RUN PERIOD 1, 01/03 07:03 - 07:06\n   **   ~~~   ** ... Operation at low ambient temperatures may require special performance curves.\n   ** Warning ** CalcDoe2DXCoil: Coil:Cooling:DX:SingleSpeed \"COIL COOLING DX SINGLE SPEED 5 37KBTU/HR 14.0SEER\" - Air-cooled condenser inlet dry-bulb temperature below 0 C. Outdoor dry-bulb temperature = -3.90\n   **   ~~~   **  ... Occurrence info = RUN PERIOD 1, 01/03 07:06 - 07:09\n   **   ~~~   ** ... Operation at low ambient temperatures may require special performance curves.\n   ** Warning ** CalcDoe2DXCoil: Coil:Cooling:DX:SingleSpeed \"COIL COOLING DX SINGLE SPEED 1 198KBTU/HR 9.7EER\" - Full load outlet air dry-bulb temperature < 2C. This indicates the possibility of coil frost/freeze. Outlet temperature = 1.25 C.\n   **   ~~~   **  ...Occurrence info = RUN PERIOD 1, 05/10 12:00 - 12:15\n   **   ~~~   ** ... Possible reasons for low outlet air dry-bulb temperatures are: This DX coil\n   **   ~~~   **    1) may have a low inlet air dry-bulb temperature. Inlet air temperature = 13.900 C.\n   **   ~~~   **    2) may have a low air flow rate per watt of cooling capacity. Check inputs.\n   **   ~~~   **    3) is used as part of a HX assisted cooling coil which uses a high sensible effectiveness. Check inputs.\n   ************* Simulation Error Summary *************\n   ************* There are 9 unused schedules in input.\n   ************* There are 9 unused week schedules in input.\n   ************* There are 20 unused day schedules in input.\n   ************* Use Output:Diagnostics,DisplayUnusedSchedules; to see them.\n   *************\n   ************* ===== Recurring Error Summary =====\n   ************* The following recurring error messages occurred.\n   *************\n   *************  ** Warning ** CalcDoe2DXCoil: Coil:Cooling:DX:SingleSpeed=\"COIL COOLING DX SINGLE SPEED 2 12KBTU/HR 14.0SEER\" - Low condenser dry-bulb temperature error continues...\n   *************  **   ~~~   **   This error occurred 198 total times;\n   *************  **   ~~~   **   during Warmup 0 times;\n   *************  **   ~~~   **   during Sizing 0 times.\n   *************  **   ~~~   **   Max=-0.15 [C]  Min=-8.6 [C]\n   *************\n   *************  ** Warning ** CalcDoe2DXCoil: Coil:Cooling:DX:SingleSpeed=\"COIL COOLING DX SINGLE SPEED 2 12KBTU/HR 14.0SEER\" - Full load outlet temperature indicates a possibility of frost/freeze error continues. Outlet air temperature statistics follow:\n   *************  **   ~~~   **   This error occurred 26 total times;\n   *************  **   ~~~   **   during Warmup 0 times;\n   *************  **   ~~~   **   during Sizing 0 times.\n   *************  **   ~~~   **   Max=1.999533  Min=0.753207\n   *************\n   *************  ** Warning ** CalcDoe2DXCoil: Coil:Cooling:DX:SingleSpeed=\"COIL COOLING DX SINGLE SPEED 4 67KBTU/HR 9.7EER\" - Low condenser dry-bulb temperature error continues...\n   *************  **   ~~~   **   This error occurred 467 total times;\n   *************  **   ~~~   **   during Warmup 0 times;\n   *************  **   ~~~   **   during Sizing 0 times.\n   *************  **   ~~~   **   Max=-0.1 [C]  Min=-16.275 [C]\n   *************\n   *************  ** Warning ** CalcDoe2DXCoil: Coil:Cooling:DX:SingleSpeed=\"COIL COOLING DX SINGLE SPEED 3 66KBTU/HR 9.7EER\" - Low condenser dry-bulb temperature error continues...\n   *************  **   ~~~   **   This error occurred 468 total times;\n   *************  **   ~~~   **   during Warmup 0 times;\n   *************  **   ~~~   **   during Sizing 0 times.\n   *************  **   ~~~   **   Max=-0.1 [C]  Min=-16.275 [C]\n   *************\n   *************  ** Warning ** CalcDoe2DXCoil: Coil:Cooling:DX:SingleSpeed=\"COIL COOLING DX SINGLE SPEED 5 37KBTU/HR 14.0SEER\" - Low condenser dry-bulb temperature error continues...\n   *************  **   ~~~   **   This error occurred 59 total times;\n   *************  **   ~~~   **   during Warmup 0 times;\n   *************  **   ~~~   **   during Sizing 0 times.\n   *************  **   ~~~   **   Max=-0.15 [C]  Min=-16.275 [C]\n   *************\n   *************  ** Warning ** CalcDoe2DXCoil: Coil:Cooling:DX:SingleSpeed=\"COIL COOLING DX SINGLE SPEED 1 198KBTU/HR 9.7EER\" - Full load outlet temperature indicates a possibility of frost/freeze error continues. Outlet air temperature statistics follow:\n   *************  **   ~~~   **   This error occurred 22 total times;\n   *************  **   ~~~   **   during Warmup 0 times;\n   *************  **   ~~~   **   during Sizing 0 times.\n   *************  **   ~~~   **   Max=1.907898  Min=0.974567\n   *************\n   *************\n   ************* ===== Final Error Summary =====\n   ************* The following error categories occurred.  Consider correcting or noting.\n   ************* Nominally Unused Constructions\n   ************* ..The nominally unused constructions warning is provided to alert you to potential conditions that can cause\n   ************* ..extra time during simulation. Each construction is calculated by the algorithm indicated in the HeatBalanceAlgorithm\n   ************* ..object. You may remove the constructions indicated (when you use the DisplayExtraWarnings option).\n   *************\n   ************* EnergyPlus Warmup Error Summary. During Warmup: 0 Warning; 0 Severe Errors.\n   ************* EnergyPlus Sizing Error Summary. During Sizing: 39 Warning; 24 Severe Errors.\n   ************* EnergyPlus Completed Successfully-- 1294 Warning; 24 Severe Errors; Elapsed Time=00hr 00min 38.92sec\n",
   "file_format_version" : "0.0.1",
   "file_paths" : [ "../weather", "../seeds", "../seed" ],
   "hash" : "0738F82A",
   "measure_paths" : [ "../measures" ],
   "name" : "LHS Autogenerated 1101",
   "osa_id" : "4fef0e0f-5396-4c55-a6e1-2cd6803db3ab",
   "osd_id" : "ba8b8676-d019-4678-ac08-dae8df294dc4",
   "run_directory" : "./run",
   "seed_file" : "seed.osm",
   "started_at" : "20170710T193557Z",
   "steps" : [
      {
         "arguments" : {
            "__SKIP__" : false,
            "building_type" : "RetailStandalone",
            "climate_zone" : "NECB HDD Method",
            "epw_file" : "CAN_BC_Prince.Rupert.718980_CWEC.epw",
            "template" : "NECB 2011"
         },
         "measure_dir_name" : "create_prototype_building",
         "name" : "create_prototype_building",
         "result" : {
            "completed_at" : "20170710T193653Z",
            "measure_class_name" : "CreatePrototypeBuilding",
            "measure_display_name" : "Create Prototype Building",
            "measure_name" : "create_prototype_building",
            "measure_taxonomy" : "Whole Building.Space Types",
            "measure_type" : "ModelMeasure",
            "measure_uid" : "ae90fsd7-a651-467a-bc8d-29d310b0f937",
            "measure_version_id" : "c6ec5c18-5595-459f-a082-09a19c8c869c",
            "measure_version_modified" : "20170519T182315Z",
            "measure_xml_checksum" : "057E8D9D",
            "started_at" : "20170710T193559Z",
            "stderr" : "",
            "stdout" : "[OpenStudio.Measure] <0> OSArgumentVector is deprecated, use OpenStudio::Measure::OSArgumentVector instead.\n[openstudio.EpwFile] <0> Successive data points (1970-Jan-31 to 1971-Feb-01, ending on line 753) are greater than 1 day apart in EPW file '/usr/local/bundle/bundler/gems/openstudio-standards-f448df66933d/openstudio-standards/data/weather/CAN_BC_Prince.Rupert.718980_CWEC.epw'. Data will be treated as typical (TMY)\n[openstudio.setFileExtension] <0> Path p, '/usr/local/bundle/bundler/gems/openstudio-standards-f448df66933d/openstudio-standards/data/weather/CAN_BC_Prince.Rupert.718980_CWEC.ddy', has an unexpected file extension. Was expecting 'idf'.\n[openstudio.model.YearDescription] <1> 'UseWeatherFile' is not yet a supported option for YearDescription\n[openstudio.model.YearDescription] <1> 'UseWeatherFile' is not yet a supported option for YearDescription\n[openstudio.setFileExtension] <0> Path p, '/usr/local/bundle/bundler/gems/openstudio-standards-f448df66933d/openstudio-standards/data/weather/CAN_BC_Prince.Rupert.718980_CWEC.ddy', has an unexpected file extension. Was expecting 'idf'.\n[openstudio.model.YearDescription] <1> 'UseWeatherFile' is not yet a supported option for YearDescription\n[openstudio.model.YearDescription] <1> 'UseWeatherFile' is not yet a supported option for YearDescription\n[openstudio.EpwFile] <0> Successive data points (1970-Jan-31 to 1971-Feb-01, ending on line 753) are greater than 1 day apart in EPW file '/usr/local/bundle/bundler/gems/openstudio-standards-f448df66933d/openstudio-standards/data/weather/CAN_BC_Prince.Rupert.718980_CWEC.epw'. Data will be treated as typical (TMY)\n[openstudio.weather.Model] <0> Could not find ground temperatures; will use generic temperatures, which will skew results.\n[openstudio.setFileExtension] <0> Path p, '/usr/local/bundle/bundler/gems/openstudio-standards-f448df66933d/openstudio-standards/data/weather/CAN_BC_Prince.Rupert.718980_CWEC.ddy', has an unexpected file extension. Was expecting 'idf'.\n[openstudio.model.YearDescription] <1> 'UseWeatherFile' is not yet a supported option for YearDescription\n[openstudio.model.YearDescription] <1> 'UseWeatherFile' is not yet a supported option for YearDescription\n[openstudio.EpwFile] <0> Successive data points (1970-Jan-31 to 1971-Feb-01, ending on line 753) are greater than 1 day apart in EPW file '/usr/local/bundle/bundler/gems/openstudio-standards-f448df66933d/openstudio-standards/data/weather/CAN_BC_Prince.Rupert.718980_CWEC.epw'. Data will be treated as typical (TMY)\n[openstudio.setFileExtension] <0> Path p, '/usr/local/bundle/bundler/gems/openstudio-standards-f448df66933d/openstudio-standards/data/weather/CAN_BC_Prince.Rupert.718980_CWEC.ddy', has an unexpected file extension. Was expecting 'idf'.\n[openstudio.model.YearDescription] <1> 'UseWeatherFile' is not yet a supported option for YearDescription\n[openstudio.model.YearDescription] <1> 'UseWeatherFile' is not yet a supported option for YearDescription\n[openstudio.setFileExtension] <0> Path p, '/usr/local/bundle/bundler/gems/openstudio-standards-f448df66933d/openstudio-standards/data/weather/CAN_BC_Prince.Rupert.718980_CWEC.ddy', has an unexpected file extension. Was expecting 'idf'.\n[openstudio.model.YearDescription] <1> 'UseWeatherFile' is not yet a supported option for YearDescription\n[openstudio.model.YearDescription] <1> 'UseWeatherFile' is not yet a supported option for YearDescription\n[openstudio.EpwFile] <0> Successive data points (1970-Jan-31 to 1971-Feb-01, ending on line 753) are greater than 1 day apart in EPW file '/usr/local/bundle/bundler/gems/openstudio-standards-f448df66933d/openstudio-standards/data/weather/CAN_BC_Prince.Rupert.718980_CWEC.epw'. Data will be treated as typical (TMY)\n[openstudio.setFileExtension] <0> Path p, '/usr/local/bundle/bundler/gems/openstudio-standards-f448df66933d/openstudio-standards/data/weather/CAN_BC_Prince.Rupert.718980_CWEC.ddy', has an unexpected file extension. Was expecting 'idf'.\n[openstudio.model.YearDescription] <1> 'UseWeatherFile' is not yet a supported option for YearDescription\n[openstudio.model.YearDescription] <1> 'UseWeatherFile' is not yet a supported option for YearDescription\n[openstudio.setFileExtension] <0> Path p, '/usr/local/bundle/bundler/gems/openstudio-standards-f448df66933d/openstudio-standards/data/weather/CAN_BC_Prince.Rupert.718980_CWEC.ddy', has an unexpected file extension. Was expecting 'idf'.\n[openstudio.model.YearDescription] <1> 'UseWeatherFile' is not yet a supported option for YearDescription\n[openstudio.model.YearDescription] <1> 'UseWeatherFile' is not yet a supported option for YearDescription\n[utilities.idf.WorkspaceObject] <0> Object of type 'Schedule:Constant' and named 'Always Off Discrete', points to an object named OnOff 1 from field 1, but that object cannot be located.\n[utilities.idf.WorkspaceObject] <0> Object of type 'Schedule:Constant' and named 'Always On Continuous', points to an object named Fractional 1 from field 1, but that object cannot be located.\n[openstudio.model.Model] <0> The run completed but had the following severe errors: Problem in interior solar distribution calculation (CHKBKS)     Solar Distribution = FullInteriorExterior will not work in Zone=CORE_RETAIL ZN     because vertex 2 of back surface=CORE_RETAIL_WALL_EAST_1 is in front of receiving surface=CORE_RETAIL_ROOF     (Dot Product indicator=459.6689)     Check surface geometry; if OK, use Solar Distribution = FullExterior instead.\\nProblem in interior solar distribution calculation (CHKBKS)     Solar Distribution = FullInteriorExterior will not work in Zone=CORE_RETAIL ZN     because vertex 3 of back surface=CORE_RETAIL_WALL_EAST_1 is in front of receiving surface=CORE_RETAIL_ROOF     (Dot Product indicator=459.6689)     Check surface geometry; if OK, use Solar Distribution = FullExterior instead.\\nProblem in interior solar distribution calculation (CHKBKS)     Solar Distribution = FullInteriorExterior will not work in Zone=CORE_RETAIL ZN     because vertex 2 of back surface=CORE_RETAIL_WALL_EAST_2 is in front of receiving surface=CORE_RETAIL_ROOF     (Dot Product indicator=459.6689)     Check surface geometry; if OK, use Solar Distribution = FullExterior instead.\\nProblem in interior solar distribution calculation (CHKBKS)     Solar Distribution = FullInteriorExterior will not work in Zone=CORE_RETAIL ZN     because vertex 3 of back surface=CORE_RETAIL_WALL_EAST_2 is in front of receiving surface=CORE_RETAIL_ROOF     (Dot Product indicator=459.6689)     Check surface geometry; if OK, use Solar Distribution = FullExterior instead.\\nProblem in interior solar distribution calculation (CHKBKS)     Solar Distribution = FullInteriorExterior will not work in Zone=CORE_RETAIL ZN     because vertex 2 of back surface=CORE_RETAIL_WALL_NORTH is in front of receiving surface=CORE_RETAIL_ROOF     (Dot Product indicator=459.6689)     Check surface geometry; if OK, use Solar Distribution = FullExterior instead.\\nProblem in interior solar distribution calculation (CHKBKS)     Solar Distribution = FullInteriorExterior will not work in Zone=CORE_RETAIL ZN     because vertex 3 of back surface=CORE_RETAIL_WALL_NORTH is in front of receiving surface=CORE_RETAIL_ROOF     (Dot Product indicator=459.6689)     Check surface geometry; if OK, use Solar Distribution = FullExterior instead.\\nProblem in interior solar distribution calculation (CHKBKS)     Solar Distribution = FullInteriorExterior will not work in Zone=CORE_RETAIL ZN     because vertex 2 of back surface=CORE_RETAIL_WALL_SOUTH_1 is in front of receiving surface=CORE_RETAIL_ROOF     (Dot Product indicator=459.6689)     Check surface geometry; if OK, use Solar Distribution = FullExterior instead.\\nProblem in interior solar distribution calculation (CHKBKS)     Solar Distribution = FullInteriorExterior will not work in Zone=CORE_RETAIL ZN     because vertex 3 of back surface=CORE_RETAIL_WALL_SOUTH_1 is in front of receiving surface=CORE_RETAIL_ROOF     (Dot Product indicator=459.6689)     Check surface geometry; if OK, use Solar Distribution = FullExterior instead.\\nProblem in interior solar distribution calculation (CHKBKS)     Solar Distribution = FullInteriorExterior will not work in Zone=CORE_RETAIL ZN     because vertex 2 of back surface=CORE_RETAIL_WALL_SOUTH_2 is in front of receiving surface=CORE_RETAIL_ROOF     (Dot Product indicator=459.6689)     Check surface geometry; if OK, use Solar Distribution = FullExterior instead.\\nProblem in interior solar distribution calculation (CHKBKS)     Solar Distribution = FullInteriorExterior will not work in Zone=CORE_RETAIL ZN     because vertex 3 of back surface=CORE_RETAIL_WALL_SOUTH_2 is in front of receiving surface=CORE_RETAIL_ROOF     (Dot Product indicator=459.6689)     Check surface geometry; if OK, use Solar Distribution = FullExterior instead.\\nProblem in interior solar distribution calculation (CHKBKS)     Solar Distribution = FullInteriorExterior will not work in Zone=CORE_RETAIL ZN     because vertex 2 of back surface=CORE_RETAIL_WALL_SOUTH_3 is in front of receiving surface=CORE_RETAIL_ROOF     (Dot Product indicator=459.6689)     Check surface geometry; if OK, use Solar Distribution = FullExterior instead.\\nProblem in interior solar distribution calculation (CHKBKS)     Solar Distribution = FullInteriorExterior will not work in Zone=CORE_RETAIL ZN     because vertex 3 of back surface=CORE_RETAIL_WALL_SOUTH_3 is in front of receiving surface=CORE_RETAIL_ROOF     (Dot Product indicator=459.6689)     Check surface geometry; if OK, use Solar Distribution = FullExterior instead.\\nProblem in interior solar distribution calculation (CHKBKS)     Solar Distribution = FullInteriorExterior will not work in Zone=CORE_RETAIL ZN     because vertex 2 of back surface=CORE_RETAIL_WALL_WEST_1 is in front of receiving surface=CORE_RETAIL_ROOF     (Dot Product indicator=459.6689)     Check surface geometry; if OK, use Solar Distribution = FullExterior instead.\\nProblem in interior solar distribution calculation (CHKBKS)     Solar Distribution = FullInteriorExterior will not work in Zone=CORE_RETAIL ZN     because vertex 3 of back surface=CORE_RETAIL_WALL_WEST_1 is in front of receiving surface=CORE_RETAIL_ROOF     (Dot Product indicator=459.6689)     Check surface geometry; if OK, use Solar Distribution = FullExterior instead.\\nProblem in interior solar distribution calculation (CHKBKS)     Solar Distribution = FullInteriorExterior will not work in Zone=CORE_RETAIL ZN     because vertex 2 of back surface=CORE_RETAIL_WALL_WEST_2 is in front of receiving surface=CORE_RETAIL_ROOF     (Dot Product indicator=459.6689)     Check surface geometry; if OK, use Solar Distribution = FullExterior instead.\\nProblem in interior solar distribution calculation (CHKBKS)     Solar Distribution = FullInteriorExterior will not work in Zone=CORE_RETAIL ZN     because vertex 3 of back surface=CORE_RETAIL_WALL_WEST_2 is in front of receiving surface=CORE_RETAIL_ROOF     (Dot Product indicator=459.6689)     Check surface geometry; if OK, use Solar Distribution = FullExterior instead.\\nProblem in interior solar distribution calculation (CHKBKS)     Solar Distribution = FullInteriorExterior will not work in Zone=CORE_RETAIL ZN     because vertex 1 of back surface=CORE_RETAIL_FLOOR is in front of receiving surface=CORE_RETAIL_ROOF     (Dot Product indicator=459.6689)     Check surface geometry; if OK, use Solar Distribution = FullExterior instead.\\nProblem in interior solar distribution calculation (CHKBKS)     Solar Distribution = FullInteriorExterior will not work in Zone=CORE_RETAIL ZN     because vertex 2 of back surface=CORE_RETAIL_FLOOR is in front of receiving surface=CORE_RETAIL_ROOF     (Dot Product indicator=459.6689)     Check surface geometry; if OK, use Solar Distribution = FullExterior instead.\\nProblem in interior solar distribution calculation (CHKBKS)     Solar Distribution = FullInteriorExterior will not work in Zone=CORE_RETAIL ZN     because vertex 3 of back surface=CORE_RETAIL_FLOOR is in front of receiving surface=CORE_RETAIL_ROOF     (Dot Product indicator=459.6689)     Check surface geometry; if OK, use Solar Distribution = FullExterior instead.\\nProblem in interior solar distribution calculation (CHKBKS)     Solar Distribution = FullInteriorExterior will not work in Zone=CORE_RETAIL ZN     because vertex 4 of back surface=CORE_RETAIL_FLOOR is in front of receiving surface=CORE_RETAIL_ROOF     (Dot Product indicator=459.6689)     Check surface geometry; if OK, use Solar Distribution = FullExterior instead.\\nProblem in interior solar distribution calculation (CHKBKS)     Solar Distribution = FullInteriorExterior will not work in Zone=CORE_RETAIL ZN     because vertex 5 of back surface=CORE_RETAIL_FLOOR is in front of receiving surface=CORE_RETAIL_ROOF     (Dot Product indicator=459.6689)     Check surface geometry; if OK, use Solar Distribution = FullExterior instead.\\nProblem in interior solar distribution calculation (CHKBKS)     Solar Distribution = FullInteriorExterior will not work in Zone=CORE_RETAIL ZN     because vertex 6 of back surface=CORE_RETAIL_FLOOR is in front of receiving surface=CORE_RETAIL_ROOF     (Dot Product indicator=459.6689)     Check surface geometry; if OK, use Solar Distribution = FullExterior instead.\\nProblem in interior solar distribution calculation (CHKBKS)     Solar Distribution = FullInteriorExterior will not work in Zone=CORE_RETAIL ZN     because vertex 7 of back surface=CORE_RETAIL_FLOOR is in front of receiving surface=CORE_RETAIL_ROOF     (Dot Product indicator=459.6689)     Check surface geometry; if OK, use Solar Distribution = FullExterior instead.\\nProblem in interior solar distribution calculation (CHKBKS)     Solar Distribution = FullInteriorExterior will not work in Zone=CORE_RETAIL ZN     because vertex 8 of back surface=CORE_RETAIL_FLOOR is in front of receiving surface=CORE_RETAIL_ROOF     (Dot Product indicator=459.6689)     Check surface geometry; if OK, use Solar Distribution = FullExterior instead.\n[utilities.idf.WorkspaceObject] <0> Object of type 'Schedule:Constant' and named 'Always Off Discrete', points to an object named OnOff 1 from field 1, but that object cannot be located.\n[utilities.idf.WorkspaceObject] <0> Object of type 'Schedule:Constant' and named 'Always On Continuous', points to an object named Fractional 1 from field 1, but that object cannot be located.\n[openstudio.model.Model] <0> The run completed but had the following severe errors: Problem in interior solar distribution calculation (CHKBKS)     Solar Distribution = FullInteriorExterior will not work in Zone=SP-CORE_RETAIL SYS-3 FLR-1 SCH-C HPLCMT-EAST ZN     because vertex 2 of back surface=CORE_RETAIL_WALL_EAST_1 is in front of receiving surface=CORE_RETAIL_ROOF     (Dot Product indicator=459.6689)     Check surface geometry; if OK, use Solar Distribution = FullExterior instead.\\nProblem in interior solar distribution calculation (CHKBKS)     Solar Distribution = FullInteriorExterior will not work in Zone=SP-CORE_RETAIL SYS-3 FLR-1 SCH-C HPLCMT-EAST ZN     because vertex 3 of back surface=CORE_RETAIL_WALL_EAST_1 is in front of receiving surface=CORE_RETAIL_ROOF     (Dot Product indicator=459.6689)     Check surface geometry; if OK, use Solar Distribution = FullExterior instead.\\nProblem in interior solar distribution calculation (CHKBKS)     Solar Distribution = FullInteriorExterior will not work in Zone=SP-CORE_RETAIL SYS-3 FLR-1 SCH-C HPLCMT-EAST ZN     because vertex 2 of back surface=CORE_RETAIL_WALL_EAST_2 is in front of receiving surface=CORE_RETAIL_ROOF     (Dot Product indicator=459.6689)     Check surface geometry; if OK, use Solar Distribution = FullExterior instead.\\nProblem in interior solar distribution calculation (CHKBKS)     Solar Distribution = FullInteriorExterior will not work in Zone=SP-CORE_RETAIL SYS-3 FLR-1 SCH-C HPLCMT-EAST ZN     because vertex 3 of back surface=CORE_RETAIL_WALL_EAST_2 is in front of receiving surface=CORE_RETAIL_ROOF     (Dot Product indicator=459.6689)     Check surface geometry; if OK, use Solar Distribution = FullExterior instead.\\nProblem in interior solar distribution calculation (CHKBKS)     Solar Distribution = FullInteriorExterior will not work in Zone=SP-CORE_RETAIL SYS-3 FLR-1 SCH-C HPLCMT-EAST ZN     because vertex 2 of back surface=CORE_RETAIL_WALL_NORTH is in front of receiving surface=CORE_RETAIL_ROOF     (Dot Product indicator=459.6689)     Check surface geometry; if OK, use Solar Distribution = FullExterior instead.\\nProblem in interior solar distribution calculation (CHKBKS)     Solar Distribution = FullInteriorExterior will not work in Zone=SP-CORE_RETAIL SYS-3 FLR-1 SCH-C HPLCMT-EAST ZN     because vertex 3 of back surface=CORE_RETAIL_WALL_NORTH is in front of receiving surface=CORE_RETAIL_ROOF     (Dot Product indicator=459.6689)     Check surface geometry; if OK, use Solar Distribution = FullExterior instead.\\nProblem in interior solar distribution calculation (CHKBKS)     Solar Distribution = FullInteriorExterior will not work in Zone=SP-CORE_RETAIL SYS-3 FLR-1 SCH-C HPLCMT-EAST ZN     because vertex 2 of back surface=CORE_RETAIL_WALL_SOUTH_1 is in front of receiving surface=CORE_RETAIL_ROOF     (Dot Product indicator=459.6689)     Check surface geometry; if OK, use Solar Distribution = FullExterior instead.\\nProblem in interior solar distribution calculation (CHKBKS)     Solar Distribution = FullInteriorExterior will not work in Zone=SP-CORE_RETAIL SYS-3 FLR-1 SCH-C HPLCMT-EAST ZN     because vertex 3 of back surface=CORE_RETAIL_WALL_SOUTH_1 is in front of receiving surface=CORE_RETAIL_ROOF     (Dot Product indicator=459.6689)     Check surface geometry; if OK, use Solar Distribution = FullExterior instead.\\nProblem in interior solar distribution calculation (CHKBKS)     Solar Distribution = FullInteriorExterior will not work in Zone=SP-CORE_RETAIL SYS-3 FLR-1 SCH-C HPLCMT-EAST ZN     because vertex 2 of back surface=CORE_RETAIL_WALL_SOUTH_2 is in front of receiving surface=CORE_RETAIL_ROOF     (Dot Product indicator=459.6689)     Check surface geometry; if OK, use Solar Distribution = FullExterior instead.\\nProblem in interior solar distribution calculation (CHKBKS)     Solar Distribution = FullInteriorExterior will not work in Zone=SP-CORE_RETAIL SYS-3 FLR-1 SCH-C HPLCMT-EAST ZN     because vertex 3 of back surface=CORE_RETAIL_WALL_SOUTH_2 is in front of receiving surface=CORE_RETAIL_ROOF     (Dot Product indicator=459.6689)     Check surface geometry; if OK, use Solar Distribution = FullExterior instead.\\nProblem in interior solar distribution calculation (CHKBKS)     Solar Distribution = FullInteriorExterior will not work in Zone=SP-CORE_RETAIL SYS-3 FLR-1 SCH-C HPLCMT-EAST ZN     because vertex 2 of back surface=CORE_RETAIL_WALL_SOUTH_3 is in front of receiving surface=CORE_RETAIL_ROOF     (Dot Product indicator=459.6689)     Check surface geometry; if OK, use Solar Distribution = FullExterior instead.\\nProblem in interior solar distribution calculation (CHKBKS)     Solar Distribution = FullInteriorExterior will not work in Zone=SP-CORE_RETAIL SYS-3 FLR-1 SCH-C HPLCMT-EAST ZN     because vertex 3 of back surface=CORE_RETAIL_WALL_SOUTH_3 is in front of receiving surface=CORE_RETAIL_ROOF     (Dot Product indicator=459.6689)     Check surface geometry; if OK, use Solar Distribution = FullExterior instead.\\nProblem in interior solar distribution calculation (CHKBKS)     Solar Distribution = FullInteriorExterior will not work in Zone=SP-CORE_RETAIL SYS-3 FLR-1 SCH-C HPLCMT-EAST ZN     because vertex 2 of back surface=CORE_RETAIL_WALL_WEST_1 is in front of receiving surface=CORE_RETAIL_ROOF     (Dot Product indicator=459.6689)     Check surface geometry; if OK, use Solar Distribution = FullExterior instead.\\nProblem in interior solar distribution calculation (CHKBKS)     Solar Distribution = FullInteriorExterior will not work in Zone=SP-CORE_RETAIL SYS-3 FLR-1 SCH-C HPLCMT-EAST ZN     because vertex 3 of back surface=CORE_RETAIL_WALL_WEST_1 is in front of receiving surface=CORE_RETAIL_ROOF     (Dot Product indicator=459.6689)     Check surface geometry; if OK, use Solar Distribution = FullExterior instead.\\nProblem in interior solar distribution calculation (CHKBKS)     Solar Distribution = FullInteriorExterior will not work in Zone=SP-CORE_RETAIL SYS-3 FLR-1 SCH-C HPLCMT-EAST ZN     because vertex 2 of back surface=CORE_RETAIL_WALL_WEST_2 is in front of receiving surface=CORE_RETAIL_ROOF     (Dot Product indicator=459.6689)     Check surface geometry; if OK, use Solar Distribution = FullExterior instead.\\nProblem in interior solar distribution calculation (CHKBKS)     Solar Distribution = FullInteriorExterior will not work in Zone=SP-CORE_RETAIL SYS-3 FLR-1 SCH-C HPLCMT-EAST ZN     because vertex 3 of back surface=CORE_RETAIL_WALL_WEST_2 is in front of receiving surface=CORE_RETAIL_ROOF     (Dot Product indicator=459.6689)     Check surface geometry; if OK, use Solar Distribution = FullExterior instead.\\nProblem in interior solar distribution calculation (CHKBKS)     Solar Distribution = FullInteriorExterior will not work in Zone=SP-CORE_RETAIL SYS-3 FLR-1 SCH-C HPLCMT-EAST ZN     because vertex 1 of back surface=CORE_RETAIL_FLOOR is in front of receiving surface=CORE_RETAIL_ROOF     (Dot Product indicator=459.6689)     Check surface geometry; if OK, use Solar Distribution = FullExterior instead.\\nProblem in interior solar distribution calculation (CHKBKS)     Solar Distribution = FullInteriorExterior will not work in Zone=SP-CORE_RETAIL SYS-3 FLR-1 SCH-C HPLCMT-EAST ZN     because vertex 2 of back surface=CORE_RETAIL_FLOOR is in front of receiving surface=CORE_RETAIL_ROOF     (Dot Product indicator=459.6689)     Check surface geometry; if OK, use Solar Distribution = FullExterior instead.\\nProblem in interior solar distribution calculation (CHKBKS)     Solar Distribution = FullInteriorExterior will not work in Zone=SP-CORE_RETAIL SYS-3 FLR-1 SCH-C HPLCMT-EAST ZN     because vertex 3 of back surface=CORE_RETAIL_FLOOR is in front of receiving surface=CORE_RETAIL_ROOF     (Dot Product indicator=459.6689)     Check surface geometry; if OK, use Solar Distribution = FullExterior instead.\\nProblem in interior solar distribution calculation (CHKBKS)     Solar Distribution = FullInteriorExterior will not work in Zone=SP-CORE_RETAIL SYS-3 FLR-1 SCH-C HPLCMT-EAST ZN     because vertex 4 of back surface=CORE_RETAIL_FLOOR is in front of receiving surface=CORE_RETAIL_ROOF     (Dot Product indicator=459.6689)     Check surface geometry; if OK, use Solar Distribution = FullExterior instead.\\nProblem in interior solar distribution calculation (CHKBKS)     Solar Distribution = FullInteriorExterior will not work in Zone=SP-CORE_RETAIL SYS-3 FLR-1 SCH-C HPLCMT-EAST ZN     because vertex 5 of back surface=CORE_RETAIL_FLOOR is in front of receiving surface=CORE_RETAIL_ROOF     (Dot Product indicator=459.6689)     Check surface geometry; if OK, use Solar Distribution = FullExterior instead.\\nProblem in interior solar distribution calculation (CHKBKS)     Solar Distribution = FullInteriorExterior will not work in Zone=SP-CORE_RETAIL SYS-3 FLR-1 SCH-C HPLCMT-EAST ZN     because vertex 6 of back surface=CORE_RETAIL_FLOOR is in front of receiving surface=CORE_RETAIL_ROOF     (Dot Product indicator=459.6689)     Check surface geometry; if OK, use Solar Distribution = FullExterior instead.\\nProblem in interior solar distribution calculation (CHKBKS)     Solar Distribution = FullInteriorExterior will not work in Zone=SP-CORE_RETAIL SYS-3 FLR-1 SCH-C HPLCMT-EAST ZN     because vertex 7 of back surface=CORE_RETAIL_FLOOR is in front of receiving surface=CORE_RETAIL_ROOF     (Dot Product indicator=459.6689)     Check surface geometry; if OK, use Solar Distribution = FullExterior instead.\\nProblem in interior solar distribution calculation (CHKBKS)     Solar Distribution = FullInteriorExterior will not work in Zone=SP-CORE_RETAIL SYS-3 FLR-1 SCH-C HPLCMT-EAST ZN     because vertex 8 of back surface=CORE_RETAIL_FLOOR is in front of receiving surface=CORE_RETAIL_ROOF     (Dot Product indicator=459.6689)     Check surface geometry; if OK, use Solar Distribution = FullExterior instead.\n[openstudio.standards.Fan] <0> For Fan Constant Volume 1, there is no greater nominal HP.  Use the efficiency of the largest motor category.\n[openstudio.standards.Fan] <0> For Fan Constant Volume 2, there is no greater nominal HP.  Use the efficiency of the largest motor category.\n[openstudio.standards.Fan] <0> For Fan Constant Volume 3, there is no greater nominal HP.  Use the efficiency of the largest motor category.\n[openstudio.standards.Fan] <0> For Fan Constant Volume 4, there is no greater nominal HP.  Use the efficiency of the largest motor category.\n[openstudio.standards.Fan] <0> For Fan Constant Volume 5, there is no greater nominal HP.  Use the efficiency of the largest motor category.\n[openstudio.EpwFile] <0> Successive data points (1970-Jan-31 to 1971-Feb-01, ending on line 753) are greater than 1 day apart in EPW file '/usr/local/bundle/bundler/gems/openstudio-standards-f448df66933d/openstudio-standards/data/weather/CAN_BC_Prince.Rupert.718980_CWEC.epw'. Data will be treated as typical (TMY)\n[openstudio.setFileExtension] <0> Path p, '/usr/local/bundle/bundler/gems/openstudio-standards-f448df66933d/openstudio-standards/data/weather/CAN_BC_Prince.Rupert.718980_CWEC.ddy', has an unexpected file extension. Was expecting 'idf'.\n[openstudio.model.YearDescription] <1> 'UseWeatherFile' is not yet a supported option for YearDescription\n[openstudio.model.YearDescription] <1> 'UseWeatherFile' is not yet a supported option for YearDescription\n[openstudio.setFileExtension] <0> Path p, '/usr/local/bundle/bundler/gems/openstudio-standards-f448df66933d/openstudio-standards/data/weather/CAN_BC_Prince.Rupert.718980_CWEC.ddy', has an unexpected file extension. Was expecting 'idf'.\n[openstudio.model.YearDescription] <1> 'UseWeatherFile' is not yet a supported option for YearDescription\n[openstudio.model.YearDescription] <1> 'UseWeatherFile' is not yet a supported option for YearDescription\n[openstudio.EpwFile] <0> Successive data points (1970-Jan-31 to 1971-Feb-01, ending on line 753) are greater than 1 day apart in EPW file '/usr/local/bundle/bundler/gems/openstudio-standards-f448df66933d/openstudio-standards/data/weather/CAN_BC_Prince.Rupert.718980_CWEC.epw'. Data will be treated as typical (TMY)\n[openstudio.setFileExtension] <0> Path p, '/usr/local/bundle/bundler/gems/openstudio-standards-f448df66933d/openstudio-standards/data/weather/CAN_BC_Prince.Rupert.718980_CWEC.ddy', has an unexpected file extension. Was expecting 'idf'.\n[openstudio.model.YearDescription] <1> 'UseWeatherFile' is not yet a supported option for YearDescription\n[openstudio.model.YearDescription] <1> 'UseWeatherFile' is not yet a supported option for YearDescription\n[openstudio.setFileExtension] <0> Path p, '/usr/local/bundle/bundler/gems/openstudio-standards-f448df66933d/openstudio-standards/data/weather/CAN_BC_Prince.Rupert.718980_CWEC.ddy', has an unexpected file extension. Was expecting 'idf'.\n[openstudio.model.YearDescription] <1> 'UseWeatherFile' is not yet a supported option for YearDescription\n[openstudio.model.YearDescription] <1> 'UseWeatherFile' is not yet a supported option for YearDescription\n[openstudio.EpwFile] <0> Successive data points (1970-Jan-31 to 1971-Feb-01, ending on line 753) are greater than 1 day apart in EPW file '/usr/local/bundle/bundler/gems/openstudio-standards-f448df66933d/openstudio-standards/data/weather/CAN_BC_Prince.Rupert.718980_CWEC.epw'. Data will be treated as typical (TMY)\n[openstudio.setFileExtension] <0> Path p, '/usr/local/bundle/bundler/gems/openstudio-standards-f448df66933d/openstudio-standards/data/weather/CAN_BC_Prince.Rupert.718980_CWEC.ddy', has an unexpected file extension. Was expecting 'idf'.\n[openstudio.model.YearDescription] <1> 'UseWeatherFile' is not yet a supported option for YearDescription\n[openstudio.model.YearDescription] <1> 'UseWeatherFile' is not yet a supported option for YearDescription\n[openstudio.setFileExtension] <0> Path p, '/usr/local/bundle/bundler/gems/openstudio-standards-f448df66933d/openstudio-standards/data/weather/CAN_BC_Prince.Rupert.718980_CWEC.ddy', has an unexpected file extension. Was expecting 'idf'.\n[openstudio.model.YearDescription] <1> 'UseWeatherFile' is not yet a supported option for YearDescription\n[openstudio.model.YearDescription] <1> 'UseWeatherFile' is not yet a supported option for YearDescription\n[openstudio.EpwFile] <0> Successive data points (1970-Jan-31 to 1971-Feb-01, ending on line 753) are greater than 1 day apart in EPW file '/usr/local/bundle/bundler/gems/openstudio-standards-f448df66933d/openstudio-standards/data/weather/CAN_BC_Prince.Rupert.718980_CWEC.epw'. Data will be treated as typical (TMY)\n[openstudio.setFileExtension] <0> Path p, '/usr/local/bundle/bundler/gems/openstudio-standards-f448df66933d/openstudio-standards/data/weather/CAN_BC_Prince.Rupert.718980_CWEC.ddy', has an unexpected file extension. Was expecting 'idf'.\n[openstudio.model.YearDescription] <1> 'UseWeatherFile' is not yet a supported option for YearDescription\n[openstudio.model.YearDescription] <1> 'UseWeatherFile' is not yet a supported option for YearDescription\n[openstudio.setFileExtension] <0> Path p, '/usr/local/bundle/bundler/gems/openstudio-standards-f448df66933d/openstudio-standards/data/weather/CAN_BC_Prince.Rupert.718980_CWEC.ddy', has an unexpected file extension. Was expecting 'idf'.\n[openstudio.model.YearDescription] <1> 'UseWeatherFile' is not yet a supported option for YearDescription\n[openstudio.model.YearDescription] <1> 'UseWeatherFile' is not yet a supported option for YearDescription\n[openstudio.EpwFile] <0> Successive data points (1970-Jan-31 to 1971-Feb-01, ending on line 753) are greater than 1 day apart in EPW file '/usr/local/bundle/bundler/gems/openstudio-standards-f448df66933d/openstudio-standards/data/weather/CAN_BC_Prince.Rupert.718980_CWEC.epw'. Data will be treated as typical (TMY)\n[openstudio.setFileExtension] <0> Path p, '/usr/local/bundle/bundler/gems/openstudio-standards-f448df66933d/openstudio-standards/data/weather/CAN_BC_Prince.Rupert.718980_CWEC.ddy', has an unexpected file extension. Was expecting 'idf'.\n[openstudio.model.YearDescription] <1> 'UseWeatherFile' is not yet a supported option for YearDescription\n[openstudio.model.YearDescription] <1> 'UseWeatherFile' is not yet a supported option for YearDescription\n[openstudio.setFileExtension] <0> Path p, '/usr/local/bundle/bundler/gems/openstudio-standards-f448df66933d/openstudio-standards/data/weather/CAN_BC_Prince.Rupert.718980_CWEC.ddy', has an unexpected file extension. Was expecting 'idf'.\n[openstudio.model.YearDescription] <1> 'UseWeatherFile' is not yet a supported option for YearDescription\n[openstudio.model.YearDescription] <1> 'UseWeatherFile' is not yet a supported option for YearDescription\n[openstudio.standards.Fan] <0> For Fan Constant Volume 1, there is no greater nominal HP.  Use the efficiency of the largest motor category.\n[openstudio.standards.Fan] <0> For Fan Constant Volume 2, there is no greater nominal HP.  Use the efficiency of the largest motor category.\n[openstudio.standards.Fan] <0> For Fan Constant Volume 3, there is no greater nominal HP.  Use the efficiency of the largest motor category.\n[openstudio.standards.Fan] <0> For Fan Constant Volume 4, there is no greater nominal HP.  Use the efficiency of the largest motor category.\n[openstudio.standards.Fan] <0> For Fan Constant Volume 5, there is no greater nominal HP.  Use the efficiency of the largest motor category.\n",
            "step_errors" : [],
            "step_files" : [],
            "step_info" : [
               "Started adding geometry",
               "Finished adding geometry",
               "Started adding weather file for climate zone: NECB HDD Method.",
               "Template =",
               "Setting Back_Space to Space Function.Storage area",
               "Setting Core_Retail to Space Function.Retail - sales",
               "Setting Front_Retail to Space Function.Retail - sales",
               "Setting Point_Of_Sale to Space Function.Retail - sales",
               "Setting Front_Entry to Space Function.Lobby - elevator",
               "Started applying space types (loads)",
               "Space Function Lobby - elevator had no people, one has been created.",
               "Space Function Lobby - elevator set occupancy to 9.29 people/1000 ft^2.",
               "Space Function Lobby - elevator had no lights, one has been created.",
               "Space Function Lobby - elevator set LPD to 0.641025641 W/ft^2.",
               "Space Function Lobby - elevator had no electric equipment, one has been created.",
               "Space Function Lobby - elevator set electric EPD to 0.092902267 W/ft^2.",
               "Space Function Lobby - elevator had no ventilation specification, one has been created.",
               "Space Function Lobby - elevator set ventilation per area to 0.81 cfm/ft^2.",
               "Space Function Lobby - elevator had no infiltration objects, one has been created.",
               "Space Function Lobby - elevator set infiltration to 0.0 per ft^2 exterior surface area.",
               "Space Function Lobby - elevator set occupancy schedule to NECB-C-Occupancy.",
               "Space Function Lobby - elevator set occupant activity schedule to NECB-Activity.",
               "Space Function Lobby - elevator set lighting schedule to NECB-C-Lighting.",
               "Space Function Lobby - elevator set electric equipment schedule to NECB-C-Electric-Equipment.",
               "Space Function Lobby - elevator set infiltration schedule to Always On.",
               "Space Function Lobby - elevator set heating setpoint schedule to NECB-C-Thermostat Setpoint-Heating.",
               "Space Function Lobby - elevator set cooling setpoint schedule to NECB-C-Thermostat Setpoint-Cooling.",
               "Space Function Retail - sales had no people, one has been created.",
               "Space Function Retail - sales set occupancy to 3.1 people/1000 ft^2.",
               "Space Function Retail - sales had no lights, one has been created.",
               "Space Function Retail - sales set LPD to 1.681531029 W/ft^2.",
               "Space Function Retail - sales had no electric equipment, one has been created.",
               "Space Function Retail - sales set electric EPD to 0.232255667 W/ft^2.",
               "Space Function Retail - sales had no ventilation specification, one has been created.",
               "Space Function Retail - sales set ventilation per area to 0.233 cfm/ft^2.",
               "Space Function Retail - sales had no infiltration objects, one has been created.",
               "Space Function Retail - sales set infiltration to 0.0 per ft^2 exterior surface area.",
               "Space Function Retail - sales set occupancy schedule to NECB-C-Occupancy.",
               "Space Function Retail - sales set occupant activity schedule to NECB-Activity.",
               "Space Function Retail - sales set lighting schedule to NECB-C-Lighting.",
               "Space Function Retail - sales set electric equipment schedule to NECB-C-Electric-Equipment.",
               "Space Function Retail - sales set infiltration schedule to Always On.",
               "Space Function Retail - sales set heating setpoint schedule to NECB-C-Thermostat Setpoint-Heating.",
               "Space Function Retail - sales set cooling setpoint schedule to NECB-C-Thermostat Setpoint-Cooling.",
               "Space Function Storage area had no people, one has been created.",
               "Space Function Storage area set occupancy to 0.93 people/1000 ft^2.",
               "Space Function Storage area had no lights, one has been created.",
               "Space Function Storage area set LPD to 0.631735414 W/ft^2.",
               "Space Function Storage area had no electric equipment, one has been created.",
               "Space Function Storage area set electric EPD to 0.092902267 W/ft^2.",
               "Space Function Storage area had no ventilation specification, one has been created.",
               "Space Function Storage area set ventilation per area to 0.07 cfm/ft^2.",
               "Space Function Storage area had no infiltration objects, one has been created.",
               "Space Function Storage area set infiltration to 0.0 per ft^2 exterior surface area.",
               "Space Function Storage area set occupancy schedule to NECB-E-Occupancy.",
               "Space Function Storage area set occupant activity schedule to NECB-Activity.",
               "Space Function Storage area set lighting schedule to NECB-E-Lighting.",
               "Space Function Storage area set electric equipment schedule to NECB-E-Electric-Equipment.",
               "Space Function Storage area set infiltration schedule to Always On.",
               "Space Function Storage area set heating setpoint schedule to NECB-E-Thermostat Setpoint-Heating.",
               "Space Function Storage area set cooling setpoint schedule to NECB-E-Thermostat Setpoint-Cooling.",
               "Finished applying space types (loads)",
               "Started applying constructions",
               "Adding construction set: NECB 2011-NECB HDD Method-Retail--is_residentialNo",
               "Adding construction Typical Insulated Exterior Mass Floor R-15.63.",
               "Adding construction Typical Insulated Exterior Mass Wall R-12.5.",
               "Adding construction Typical Insulated Metal Building Roof R-20.41.",
               "Adding construction Typical Interior Floor.",
               "Adding construction Typical Interior Wall.",
               "Adding construction Typical Interior Ceiling.",
               "Adding construction Typical Insulated Carpeted 6in Slab Floor.",
               "Adding construction U 0.55 SHGC 0.31 Dbl Ref-D Tint 6mm/6mm Air.",
               "Adding construction Typical Insulated Metal Door R-1.43.",
               "Adding construction U 0.35 SHGC 0.35 Dbl LoE (e2-.1) Tint 6mm/13mm Air.",
               "Adding construction Typical Overhead Door R-2.0.",
               "Adding construction U 0.48 SHGC 0.40 Dbl Ref-D Clr 6mm/13mm.",
               "Adding construction Typical Interior Window.",
               "Adding construction Typical Interior Door.",
               "Adding construction Typical Interior Partition.",
               "Finished applying constructions",
               "WWR NonRes = 0%; window = 0 ft2, wall = 0 ft2.",
               "WWR Res = 0%; window = 0 ft2, wall = 0 ft2.",
               "WWR Semiheated = 0%; window = 0 ft2, wall = 0 ft2.",
               "The skylight to roof ratios (SRRs) are: NonRes: 1%, Res: 0%.",
               "Started creating thermal zones",
               "Finished creating thermal zones",
               "Running simulation /mnt/openstudio/analysis_4fef0e0f-5396-4c55-a6e1-2cd6803db3ab/data_point_ba8b8676-d019-4678-ac08-dae8df294dc4/run/000_create_prototype_building/output/RetailStandalone-NECB 2011-NECB HDD Method-CAN_BC_Prince.Rupert.718980_CWEC.epw/SR0.",
               "Finished run.",
               "Started Adding HVAC",
               "Finished adding HVAC",
               "Started Adding Service Water Heating",
               "Adding service water loop.",
               "Adding water heater.",
               "Template =",
               "Finished adding Service Water Heating",
               "Set sizing factors to 1.3 for heating and 1.3 for cooling.",
               "Running simulation /mnt/openstudio/analysis_4fef0e0f-5396-4c55-a6e1-2cd6803db3ab/data_point_ba8b8676-d019-4678-ac08-dae8df294dc4/run/000_create_prototype_building/output/RetailStandalone-NECB 2011-NECB HDD Method-CAN_BC_Prince.Rupert.718980_CWEC.epw/SR1.",
               "Finished run.",
               "Started applying multizone vav OA sizing.",
               "Finished applying multizone vav OA sizing.",
               "Started applying prototype HVAC assumptions.",
               "For Fan Constant Volume 1: allowed_hp = 5.08HP; motor eff = 61.5%; total fan eff = 40% based on 7419 cfm.",
               "For Fan Constant Volume 2: allowed_hp = 1.01HP; motor eff = 61.5%; total fan eff = 40% based on 442 cfm.",
               "For Fan Constant Volume 3: allowed_hp = 1.7HP; motor eff = 61.5%; total fan eff = 40% based on 2489 cfm.",
               "For Fan Constant Volume 4: allowed_hp = 1.71HP; motor eff = 61.5%; total fan eff = 40% based on 2496 cfm.",
               "For Fan Constant Volume 5: allowed_hp = 1.01HP; motor eff = 61.5%; total fan eff = 40% based on 1377 cfm.",
               "Sp-Front_Entry Sys-3 Flr-1 Sch-C HPlcmt-south ZN NECB System 3 PSZ does not require an economizer because the total cooling capacity of 11782 Btu/hr is less than the minimum capacity of 68243 Btu/hr.",
               "Sp-Back_Space Sys-4 Flr-1 Sch-E HPlcmt-north ZN NECB System 4 PSZ does not require an economizer because the total cooling capacity of 36697 Btu/hr is less than the minimum capacity of 68243 Btu/hr.",
               "Sp-Point_Of_Sale Sys-3 Flr-1 Sch-C HPlcmt-south ZN NECB System 3 PSZ does not require an economizer because the total cooling capacity of 66360 Btu/hr is less than the minimum capacity of 68243 Btu/hr.",
               "Sp-Core_Retail Sys-3 Flr-1 Sch-C HPlcmt-east ZN NECB System 3 PSZ requires an economizer because the total cooling capacity of 197774 Btu/hr exceeds the minimum capacity of 68243 Btu/hr.",
               "Sp-Front_Retail Sys-3 Flr-1 Sch-C HPlcmt-south ZN NECB System 3 PSZ does not require an economizer because the total cooling capacity of 66547 Btu/hr is less than the minimum capacity of 68243 Btu/hr.",
               "Finished applying prototype HVAC assumptions.",
               "Started applying HVAC efficiency standards.",
               "For Sp-Back_Space Sys-4 Flr-1 Sch-E HPlcmt-north ZN NECB System 4 PSZ, ERV not required based on 0% OA flow, design supply air flow of 1377cfm, and climate zone NECB HDD Method.",
               "For Sp-Back_Space Sys-4 Flr-1 Sch-E HPlcmt-north ZN NECB System 4 PSZ, ERV not required based on exhaust heat content.",
               "For NECB 2011 NECB HDD Method:  Sp-Back_Space Sys-4 Flr-1 Sch-E HPlcmt-north ZN NECB System 4 PSZ: DCV is not required for any system.",
               "For Sp-Back_Space Sys-4 Flr-1 Sch-E HPlcmt-north ZN NECB System 4 PSZ: Annual occupied hours = 3068 hr/yr, assuming a 0.15 occupancy threshold.  This schedule will be used as the HVAC operation schedule.",
               "For Sp-Back_Space Sys-4 Flr-1 Sch-E HPlcmt-north ZN NECB System 4 PSZ: Setting motorized OA damper schedule to Sp-Back_Space Sys-4 Flr-1 Sch-E HPlcmt-north ZN NECB System 4 PSZ Occ Sch.",
               "For Sp-Core_Retail Sys-3 Flr-1 Sch-C HPlcmt-east ZN NECB System 3 PSZ, ERV not required based on 0% OA flow, design supply air flow of 7419cfm, and climate zone NECB HDD Method.",
               "For Sp-Core_Retail Sys-3 Flr-1 Sch-C HPlcmt-east ZN NECB System 3 PSZ, ERV not required based on exhaust heat content.",
               "For NECB 2011 NECB HDD Method:  Sp-Core_Retail Sys-3 Flr-1 Sch-C HPlcmt-east ZN NECB System 3 PSZ: DCV is not required for any system.",
               "For Sp-Core_Retail Sys-3 Flr-1 Sch-C HPlcmt-east ZN NECB System 3 PSZ: Annual occupied hours = 4168 hr/yr, assuming a 0.15 occupancy threshold.  This schedule will be used as the HVAC operation schedule.",
               "For Sp-Core_Retail Sys-3 Flr-1 Sch-C HPlcmt-east ZN NECB System 3 PSZ: Because the system has an economizer, it requires a motorized OA damper.",
               "For Sp-Core_Retail Sys-3 Flr-1 Sch-C HPlcmt-east ZN NECB System 3 PSZ: Setting motorized OA damper schedule to Sp-Core_Retail Sys-3 Flr-1 Sch-C HPlcmt-east ZN NECB System 3 PSZ Occ Sch.",
               "For Sp-Front_Entry Sys-3 Flr-1 Sch-C HPlcmt-south ZN NECB System 3 PSZ, ERV not required based on 0% OA flow, design supply air flow of 442cfm, and climate zone NECB HDD Method.",
               "For Sp-Front_Entry Sys-3 Flr-1 Sch-C HPlcmt-south ZN NECB System 3 PSZ, ERV not required based on exhaust heat content.",
               "For NECB 2011 NECB HDD Method:  Sp-Front_Entry Sys-3 Flr-1 Sch-C HPlcmt-south ZN NECB System 3 PSZ: DCV is not required for any system.",
               "For Sp-Front_Entry Sys-3 Flr-1 Sch-C HPlcmt-south ZN NECB System 3 PSZ: Unoccupied fan shutoff not required because system fan HP of 0.45 HP is less than the minimum threshold of 0.75 HP.",
               "For Sp-Front_Entry Sys-3 Flr-1 Sch-C HPlcmt-south ZN NECB System 3 PSZ: Setting motorized OA damper schedule to Always On Discrete.",
               "For Sp-Front_Retail Sys-3 Flr-1 Sch-C HPlcmt-south ZN NECB System 3 PSZ, ERV not required based on 0% OA flow, design supply air flow of 2496cfm, and climate zone NECB HDD Method.",
               "For Sp-Front_Retail Sys-3 Flr-1 Sch-C HPlcmt-south ZN NECB System 3 PSZ, ERV not required based on exhaust heat content.",
               "For NECB 2011 NECB HDD Method:  Sp-Front_Retail Sys-3 Flr-1 Sch-C HPlcmt-south ZN NECB System 3 PSZ: DCV is not required for any system.",
               "For Sp-Front_Retail Sys-3 Flr-1 Sch-C HPlcmt-south ZN NECB System 3 PSZ: Annual occupied hours = 4168 hr/yr, assuming a 0.15 occupancy threshold.  This schedule will be used as the HVAC operation schedule.",
               "For Sp-Front_Retail Sys-3 Flr-1 Sch-C HPlcmt-south ZN NECB System 3 PSZ: Setting motorized OA damper schedule to Sp-Front_Retail Sys-3 Flr-1 Sch-C HPlcmt-south ZN NECB System 3 PSZ Occ Sch.",
               "For Sp-Point_Of_Sale Sys-3 Flr-1 Sch-C HPlcmt-south ZN NECB System 3 PSZ, ERV not required based on 0% OA flow, design supply air flow of 2489cfm, and climate zone NECB HDD Method.",
               "For Sp-Point_Of_Sale Sys-3 Flr-1 Sch-C HPlcmt-south ZN NECB System 3 PSZ, ERV not required based on exhaust heat content.",
               "For NECB 2011 NECB HDD Method:  Sp-Point_Of_Sale Sys-3 Flr-1 Sch-C HPlcmt-south ZN NECB System 3 PSZ: DCV is not required for any system.",
               "For Sp-Point_Of_Sale Sys-3 Flr-1 Sch-C HPlcmt-south ZN NECB System 3 PSZ: Annual occupied hours = 4168 hr/yr, assuming a 0.15 occupancy threshold.  This schedule will be used as the HVAC operation schedule.",
               "For Sp-Point_Of_Sale Sys-3 Flr-1 Sch-C HPlcmt-south ZN NECB System 3 PSZ: Setting motorized OA damper schedule to Sp-Point_Of_Sale Sys-3 Flr-1 Sch-C HPlcmt-south ZN NECB System 3 PSZ Occ Sch.",
               "For Fan Constant Volume 1: motor nameplate = 5HP, motor eff = 61.5%.",
               "For Fan Constant Volume 2: motor nameplate = 0.2753098078305102HP, motor eff = 61.5%.",
               "For Fan Constant Volume 3: motor nameplate = 1.550661635827123HP, motor eff = 61.5%.",
               "For Fan Constant Volume 4: motor nameplate = 1.555031957973894HP, motor eff = 61.5%.",
               "For Fan Constant Volume 5: motor nameplate = 0.8575033126464306HP, motor eff = 61.5%.",
               "For Service Water Loop Pump: brake hp = 0.0HP, motor nameplate = 0.1HP, motor eff = 70.0%.",
[...]
W2xoWvasmtafzu6pu1vQde0/Y11Tet2XJamaTY6PSadPSadPpPOgElnn0nngEnnkEln5Z57KyGuiHa4QtrhimmHK6gdrqh2uMLa4YprhyuwHa7Idrki22Vbq7ki2+WKbNcosvW7o61IVW+OZiFDnqHqrdEsZMh5X70xmoUMOeert0WzkCHnu0VTNBsdpjim05hFRzQbHaZQpnOYRTs0Gx2maKYTmEUvNJt1kCme6exl0QjNRocpnunUVb0L2oqMRRM0Gx3y9Fi0QLPRIae7RQM0Gx1yulu0P7PRIae7TfMzKyGuiKYzmE3nMyshrqCmk5hN2zMrIa64pvOYTc8zq5WRK7LpVGbT8MxKiCuy6WyGbmfodoZuZ88I0e1Mbeh2hm5n6HZWsqHbGbqdGR0Vup2t+Bu8H93Onm7odva41fDjqm+sKQBwgAMc4AAHOMABDnCAAxzgbD3ON9YrADSgAQ1oQAMa0IAGNKABDWi2h+Yv06MAOMABDnCAAxzgAAc4wAEOcKr7odvZYkO3s2W3s8F2dDs72IJuZwcb7HbW7TO1O7MQ6nEJ7XEJ9bmEBlxC+1xCB1xCh1xCf7rb3kaJLbYdtuB22KLbYQtvhy2+HbYAd9gi3GELcYctxl22GHf51m+2GHfZYtw1i3GTLmhPtWzaoFXXoc+STSO06jr0KmDTCq26Dr0C2DRDq65Dz36rdmgWQlwRXZLerDqiWQhxBXVJbrNqimYhxBXXJYnNqi+axcrIFdklWc2qNZqFEFdkl6Q0m+5oT3Ws2qNZCNGnyKpBmoUQPfmtWqRZCNGT36pJmoUQPfnt2qTZKLHFdklms+uUZqPEFt4lyc2uWZqNEluEl+Q3u35pNmslW4yXpDi7lmk2SmwxXpLl0DUNXdPQNe0ZIbqmqQ1d09A1DV3TSjZ0TUPXNKOjQte0FX+D96Nr2tMNXdMetxp+pPWNNRcADnCAAxzgAAc4wAEOcIADnK3H+cZ6DoAGNKABDWhAAxrQgAY0oAHN9tD8ZXodAAc4wAEOcIADHOAABzjAAU51P3RNW2zomrbsmra/HV3TDrega9rhxrqmDYp7Qqt2uOES6nEJ7XEJ9bmEBlxC+1xCB1xCh1xCKzff2ymxxbbDFtwOW3Q7bOHtsMW3wxbgDluEO2wh7rDFuMsW4y7f+s0W4y5bjLtmMa7fNW1Vq3rXNBsd+ixV75pmo0OvAtW7ptno0CtA9a5pNjr07LfommYlxBXRJenNomualRBXUJfkNouuaVZCXHFdktgsuqZZrYxckV2S1Sy6plkJcUV2SUqr3jVtVceia5qVEH2KLLqmWQnRk9+ia5qVED35LbqmWQnRk9+ma5qdEltsl2Q2m65pdkps4V2S3Gy6ptkpsUV4SX6z6Zpmt1ayxXhJirPpmmanxBbjJVkOXdPQNQ1d054Romua2tA1DV3T0DWtZEPXNHRNMzoqdE1b8Td4P7qmPd3QNe1xq+FHWt9YcwHgAAc4wAEOcIADHOAABzjA2Xqcb6znAGhAAxrQgAY0oAENaEADGtBsD81fptcBcIADHOAABzjAAQ5wgAMc4FT3Q9e0xYauacuuaQdb0TVtr/vtd03LGTfVNa3bcVmaptno9Jh09ph0+kw6AyadfSadAyadQyadlXvurYS4ItrhCmmHK6YdrqB2uKLa4QprhyuuHa7Adrgi2+WKbJdtreaKbJcrsl2jyNbvjrYiVb05moUMeYaqt0azkCHnffXGaBYy5Jyv3hbNQoac7xZN0Wx0mOKYTmMWHdFsdJhCmc5hFu3QbHSYoplOYBa90GzWQaZ4prOXRSM0Gx2meKZTV/UuaCsyFk3QbHTI02PRAs1Gh5zuFg3QbHTI6W7R/sxGh5zuNs3PrIS4IprOYDadz6yEuIKaTmI2bc+shLjims5jNj3PrFZGrsimU5lNwzMrIa7IprMZup2h2xm6nT0jRLcztaHbGbqdodtZyYZuZ+h2ZnRU6Ha24m/wfnQ7e7qh29njVsOPq76xpgDAAQ5wgAMc4AAHOMABDnCAs/U431ivANCABjSgAQ1oQAMa0IAGNKDZHpq/TI8C4AAHOMABDnCAAxzgAAc4wKnuh25niw3dzpbdzg63o9uZswXdzpyNdTtz9rqd7pPN2WNpfsYo26tHdq8e2X49soN6ZPfrkT2oR/awHtmVe/05dWuaZ05NE82paaY5NU01p6a55tQ02ZyaZptT03Rzappvbk3zza0rr9U039ya5ptrM9/0u8qVKVdvMsenqnt2q7eg41PVXcmqN6jjU9Vdxaq3r+NT1V3BLJrbMcrWM7u0ywWLTniMsvVMMO1awaJtHqNsPXNMu1Cw6LHHmBXqmWXaVYJFQz5G2XpmmXaJUL17X5mqRTM/RlndU2vR6o9RVncBs2gEyCiru4BZtAlklNVdwGyaCHLq1jTPtCsFm46DnLo1TTXtYsGmPSGnbk2zTbtesOllyJknappv2iWDTeNDTt2a5pt21YAuieiSiC6JzwjRJVFt6JKILonokliyoUsiuiQaHRW6JK74G7wfXRKfbuiS+LjV8KPMb6yZCHCAAxzgAAc4wAEOcIADHOBsPc431mMENKABDWhAAxrQgAY0oAENaLaH5i/T2wQ4wAEOcIADHOAABzjAAQ5wqvt9hS6JH+TtRCZeNk2kaJ7toGnit9U0USZ3wVCKf3kq8n6O44lQF0z9znmve7YdDRTdLWig6G6ugaL6e9VOTUw6PSadPSadPpPOgElnn0nngEnnkElntcGAjRBXRDtcIe1wxbTDFdQOV1Q7XGHtcMW1wxXYDldku1yR7bKt1VyR7XJFtmsU2QaN/Z5KWXTyqy5DniGLXn3VZch5b9GNr7oMOect+u1VlyHnu01HPQsdpjim05hNkzwLHaZQpnOYTd87Cx2maKYTmE0rO4t1kCme6exl053OQocpnunUZdFw7qmMTYc5Cx3y9Nj0kLPQIae7TZc4Cx1yutv0gbPQIae7Vac3GyGuiKYzmFXzNhshrqCmk5hVPzYbIa64pvOYVYs1m5WRK7LpVGbVNc1GiCuy6Wz2TOi3JIiTIJsJR7RF83wa7aiWVIP2/3lRu+u0i7+/kcN2z6HSXHflH3qvXu3tHR4yWLj1W/Tqt9ir36Jfv8Wgfov9+i0O6rc4rN9iJbPX5bGB+e1sYII7G5jhzgamuLOBOe5sYJI7G5jlzgamubOBee5uYJ67m8jjG5jn7gbmuVttnruFh5dRHl29sqrXc92DAYMFfTXYLOiLwWZBXws2C3rJZbOgV1w2C3rBZbOg11s2C3q5ZbMo+eaaz4P+6o/Pg/5WkM+D/sKQz2MDU7ykrOLz2MAkLymr+Dw2MM1Lyiq+/EeXVXwem8jjG0jkJWUVn0e1ed5THmdJQHi4h3pllePs7/d6DBb01WCzoC8GmwV9Ldgs6CWXzYJecdks6AWXzYJeb9ks6N9GsVmUlFV8HnRZxedBl1V8HnRZxedB/0SLz4P+XSKfB/2TRT4P+teMfB70Dx35PDYwz0vKKj6PTeTxDSTykrKKz6NaKt9THh/GU8rjQK+sOsy3/msGC/pqsFnQF4PNgr4WbBZ0WcVmQZdVbBZ0WcVmQZdVbBb0cstmUVJW8XnQZRWfB11W8XnQZRWfB11W8XnQZRWfB11W8XnQZRWfB11W8XlsYJ6XlFV8HpvI4xtI5CVlFZ9HtVTeVx7/kj7lsa9XVr15c3Kyv89gQV8NNgv6YrBZ0NeCzYIuq9gs6LKKzYIuq9gs6LKKzYJebtksSsoqPg+6rOLzoMsqPg+6rOLzoMsqPg+6rOLzoMsqPg+6rOLzoMsqPo8NzPOSsorPYxN5fAOJvKSs4vOolsoHRek2lZTHQK+sOjkZDFgs6KvBZkFfDDYL+lqwWdBlFZsFXVaxWdBlFZsFXVaxWdDLLZtFSVnF50GXVXwedFnF50GXVXwedFnF50GXVXwedFnF50GXVXwedFnF57GBeV5SVvF5bCKPbyCRl5RVfB7VUvm+8vglpn4W7/b1yqqDA9ft9xks6KvBZkFfDDYL+lqwWdBlFZsFXVaxWdBlFZsFXVaxWZT1nWKyKG22xuVR1q2Ky6OskRWXR1mPKy6PsvZXXB5lPd+4PMrawXF5lHWK4/IoayLH5bGBeV5SVvF5bCKPbyCRl5RVfB7rU/lHnQ6vi57M4lhE8n7ZQLboG9tM70atogPs2laxy8bOqcxex9PIT5v9bks4Tr8leupvbl+v3exDjvHYlNr3T7xMjuJk9uohSOdtkR+PX6N7dC7wLvFl8n6quhRr76g4Zqscv0gvnSZyjqEaLS/Oe83tuTGMYQxjGMMYxjCGMYxhDGMYwxjGMIYxjGEMYxjDGMYwhjGMYQxjGMMYxjCGMYxhDGMYwxjGMIYxjGEMYxjDGMYwhjGMYQxjGMMYxjCGMfw/NTzrxHcySQJf/uKpG2udTtfyflV1a2y6emvsuUwCmS5ur220ljcQT8I464RBJNfeIpt+6T7d9XfWpp3i0fOTOPSyII5yqEaayUn7Sl7HiWzo3fn8sxzJyF89oPlrzUG3JXrqzuWuupFZ/dEI5XWmwNZIL2U7lyOZnUaZOj+5xfU0GhakzR3xxxqJJaF83Pti7b3caguuRTMbB2knLa6KnpHanuzUyc/fqTccN/8LbKq2xFe3jufsC93LSZwGSvBN/rLO0Sw3JfMFqiS+N0NaYgWRL9V8aDstw72X203VHa8DGap4ay7O6XyejJJ4OpG++P578bfF6w+dy7GXLu5/VxNs5+no7Iuj+QnpeKPRmfLohDIaZWPxUrjin6LxKgwb4mj1HWkYDGWz7excdD/urJ1vz44kTkTzJj+U7g/iJrdZhOrCV73293zFMb9AalNhvNC7uPnY+SRn4vj4eH7yqikWqovLfmN6qMvtKpHepyo7fzbcx/T96nwtju5YhbUKhkWkFI0cOpdemgajSPonqkVEelGcyY/VTuXyQk+m6bhZ9Vrkl/Rofj2rz6QwPNI5yo56Z1WXNEviT1LPZ/7eqk7xxBsG2UzPavHmykdVWCytqqosF5LVZaXK9DBefNS2nM6rC49oC8dUzWS66bN+bhVZVev9n9fVFGrb3RW//f5B/Pvd7+/F+bv3H3769Ufx87sffzoRb0/fn+oJnOWrtnzwVIkmslikcZKJaHqbx8FQFC1NUuGlw7x4CaKRhuLy3CudJ5nZa4kr/cUlkdk0icTES1J5FsZe1vTUkr+TX8onr10Vr2mdzPUl2hPbxSGsE/5cb6eXx/qzmO7FZG++8OW1Nw0zMUnifA2TL1rixXcHBycnp6cvam48AxzgAAc4wAEOcIADHOAABzj/mzgind7m/wQWvlQvCt+bKaJE+qABDWhAAxrQgAY0oAENaEADmnKa++KnWX+iuQqnEjjAAQ5wgAMc4AAHOMABDnCAUwXn8bmBjnpu4PmUem5gzym+YXv1am/v8BCkIAUpSEEKUpCCFKQgBSlIQQpSkG4HqVuQehlF2i1Iez3XPRiAFKQgBSlIQQpSkIIUpCAFKUhBCtLtIO0p0rMkIEjdw4LUcfb3ez2QghSkIAUpSEEKUpCCFKQgBSlIQbodpHuK9MN4SpEeFKSH+dZ/DVKQghSkIAUpSEEKUpCCFKQgBSlIt4O0r0j/JX2KdL8gffPm5GR/H6QgBSlIQQpSkIIUpCAFKUhBClKQbgfpoPhkYiop0kFBenIyGIAUpCAFKUhBClKQghSkIAUpSEEK0m0h3Vekv8RUZ0G3X5AeHLhuvw9SkIIUpCAFKUhBClKQghSkIAUpSDdGukTxE+++uVbsoZMFWSjPx95EdjL5kDVfvI2nSboeY/Z8zzfBrYzSII5CmRYKayR2d8Ur3xeeKJTEfZCNRRrfSuH31uyZ3o063mQiI7/ZUN6NnTU7LLeOl2VJs/HQaIlB13CnWb6Tq79Tms1COcdre9FwHCf5/o1QXhvQLjSu4yhr38tgNM6UxlUc+voa82tzPmm/9oafLs8n3lCK81na3hNnYdJ2xPlw3D4Vb38Lh7dZO4qT/CL851fx6+nJa/W2TN6KPfHb+X/Eu+FQvffFTtllfbmbDpNgkv2DfM/LXT+4+/IwuQ8tlmuJwD9uDFXMn+SnyQsimVzu9RqiOHfHDT9IJ6E3OwqiMB9qX4Xx8NMPDZovF50fgshmk3x/dfp2b7w7b/5q6Z5qu/MSFZ7iWPjB7SSUnUjen9+Nmo3vnjO2xF63W/yxdropWd/LvFz34o9G6F3JsHHU8OW1Nw0zMUni6yCUjdZ85PKhceR0uq3GnRdO5eLvQ7Uq5fvkC83Jyelp43NLS8dl0ukx6ewx6fSZdAZMOvtMOgdMOodMOk6XS4groh2ukHa4YtrhCmqHK6odrrB2uOLa4QpshyuyXa7IdtnWaq7Idrki2zWKbJFOb29XHlOtldES6RvIkOfITIY8Q2Yy5PkxkyHnvZkMOevNZMg5byZDzngzGXK+m8nQicxQhymO6TRmqMMUyXQSM9RhimU6hRnqMEUzncAMdZjimU5fhjpc6zJTPNO5y1BHP57vgygzT1tX6iV9HfL0GOqQp8dQhzw9hjrkdDfUIae7oQ453Q11yOluqENOd0MdOn+ZCnFFNJ3BTIW4YprOYaZCXFFNZzFTIa64pvOYqRBXZNOZzFSIba3mimw6mZkK6Uf24/cWa58rTKW57so/9OYPHmawcOu36NVvsVe/Rb9+i0H9Fvv1WxzUb3FYv8VKZq/LYwPzu+SDWT4P+pMtPg/6Qy8+D/qTXj4P+kNgPg/682E+D/qjYz4P+lNlvvy3gXnubiKPbyCRuxvI5G61VL728Y16ZdX8+Y4MFvTVYLOgLwabBX0t2CzosorNgi6r2CzosorNgi6r2CzosorNouSbaz4P+qs/Pg+6rOLzoMsqPg+6rOLzoMsqPg+6rOLzoMsqPg+6rOLzoMsqvvy3gXle8hU/n8cGEnlJWcXnUS2Vr31Kll5ZNX+MFoMFfTXYLOiLwWZBXws2C7qsYrOgyyo2C7qsYrOgyyo2C7qsYrMoKav4POjlls+DLqv4POiyis+DLqv4POiyis+DLqv4POiyis+DLqv4POiyii//bWCel5RVfB4bSOQlZRWfR7VUvvZhJHpl1fxpJQwW9NVgs6AvBpsFfS3YLOiyis2CLqvYLOiyis2CLqvYLOiyis2ipKzi86CXWz4Puqzi86DLKj4Puqzi86DLKj4Puqzi86DLKj4Puqzi86DLKr78t4F5XlJW8XlsIJGXlFV8HtVS+dqe73pl1bwpPIMFfTXYLOiLwWZBXws2C7qsYrOgyyo2C7qsYrOgyyo2C7qsYrMoKav4POjlls+DLqv4POiyis+DLqv4POiyis+DLqv4POiyis+DLqv4POiyii//bWCel5RVfB4bSOQlZRWfR7VUvra1rl5ZNe+9y2BBXw02C/pisFnQ14LNgi6r2CzosorNgi6r2CzosorNgi6r2CxKyio+D3q55fOgyyo+D7qs4vOgyyo+D7qs4vOgyyo+D7qs4vOgyyo+D7qs4st/G5jnJWUVn8cGEnlJWcXnUS2Vr+1gqFdWzVscMljQV4PNgr4YbBb0tWCzoMsqNgu6rGKzoMsqNgu6rGKzoMsqNovSZmtcHvRyy+dR1siKy6OsxxWXR1n7Ky6Psp5vXB5l7eC4PMo6xXF5lDWR4/Io6y/Hlf82MM9Lu9JxeWwgkZeUVXwe61P5R50Or4vmzeJYRPJ+2UC26BvbTO9GraID7NpWscsO0KnMXsfTyE+b/W5LOE6/JXrqb25fr93sQ47x2Nja90+8TI7iZPbqIUjnHZQfj1+jzXQu8C7xZfJ+qhoaa++oOGarHL9IL50mco6hejIvznvNLb4xjGEMYxjDGMYwhjGMYQxjGMMYxjCGMYxhDGMYwxjGMIYxjGEMYxjDGMYwhjGMYQxjGMMYxjCGMYxhDGMYwxjGMIYxjGEMYxjDGMYwhjH8PzU868R3MkkCX/7iqRtrnU7X8n5VdWtsunpr7LlMApkubq9ttJY3EE/COOuEQSTX3iKbfuk+3fV31qad4tHzkzj0siCOcqhGmslJ+0pex4ls6N35/LMcychfPaD5a81BtyV66s7lrrqRWf3RCOV1psDWSC9lO5cjmZ1GmTo/ucX1NBoWpM0d8ccaiSWhfNz7Yu293GoLrkUzGwdpJy2uip6R2p7s1MnP36k3HDf/C2yqtsRXt47n7Avdy0mcBkrwTf6yztEsNyXzBaokvjdDWmIFkS/VfGg7LcO9l9tN1R2vAxmqeGsuzul8noySeDqRvvj+e/G3xesPncuxly7uf1cTbOfp6OyLo/kJ6Xij0Zny6IQyGmVj8VK44p+i8SoMG+Jo9R1pGAxls+3sXHQ/7qydb8+OJE5E8yY/lO4P4ia3WYTqwle99vd8xTG/QGpTYbzQu7j52PkkZ+L4+Hh+8qopFqqLy35jeqjL7SqR3qcqO3823Mf0/ep8LY7uWIW1CoZFpBSNHDqXXpoGo0j6J6pFRHpRnMmP1U7l8kJPpum4WfVa5Jf0aH49q8+kMDzSOcqOemdVlzRL4k9Sz2f+3qpO8cQbBtlMz2rx5spHVVgsraqqLBeS1WWlyvQwXnzUtpzOqwuPaAvHVM1kuumzfm4VWVXr/Z/X1RRq290Vv/3+Qfz73e/vxfm79x9++vVH8fO7H386EW9P35/qCZzlq7Z88FSJJrJYpHGSiWh6m8fBUBQtTVLhpcO8eAmikYbi8twrnSeZ2WuJK/3FJZHZNInExEtSeRbGXtb01JK/k1/KJ69dFa9pncz1JdoT28UhrBP+XG+nl8f6s5juxWRvvvDltTcNMzFJ4nwNky9a4sV3BwcnJ6enL2puPAMc4AAHOMABDnCAAxzgAAc4/5s4Ip3e5v8EFr5ULwrfmymiRPqgAQ1oQAMa0IAGNKABDWhAA5pymvvip1l/orkKpxI4wAEOcIADHOAABzjAAQ5wgFMF5/G5gY56buD5lHpuYM8pvmF79Wpv7/AQpCAFKUhBClKQghSkIAUpSEEKUpBuB6lbkHoZRdotSHs91z0YgBSkIAUpSEEKUpCCFKQgBSlIQQrS7SDtKdKzJCBI3cOC1HH293s9kIIUpCAFKUhBClKQghSkIAUpSEG6HaR7ivTDeEqRHhSkh/nWfw1SkIIUpCAFKUhBClKQghSkIAUpSLeDtK9I/yV9inS/IH3z5uRkfx+kIAUpSEEKUpCCFKQgBSlIQQpSkG4H6aD4ZGIqKdJBQXpyMhiAFKQgBSlIQQpSkIIUpCAFKUhBCtJtId1XpL/EVGdBt1+QHhy4br8PUpCCFKQgBSlIQQpSkIIUpCAFKUg3RrpE8RPvvrlW7KGTBVkoz8feRHYy+ZA1X7yNp0m6HmP2fM83wa2M0iCOQpkWCmskdnfFK98XniiUxH2QjUUa30rh99bsmd6NOt5kIiO/2VDejZ01Oyy3jpdlSbPx0GiJQddwp1m+k6u/U5rNQjnHa3vRcBwn+f6NUF4b0C40ruMoa9/LYDTOlMZVHPr6GvNrcz5pn8SJvHwvMy8IxfksbffEWZi0HXE+HLdPxNvfwuFt1pZemon//Cp+PT15rd6VyVvRE7+d/0e8Gw7VW1/slF3Wl7vpMAkm2T/I97zc9YO7Lw+T+9BiuZYI/OPGUMX8SX6avCCSyeXeXkMU5+644QfpJPRmR0EU5kPtqzAefvqhQfPlovNDENlsku+vTt/ujXfnzV8t3VNtd16iwlMcCz+4nYSyE8n787tRs/Hdc8aW2Ot2iz/WTjcl63uZl+te/NEIvSsZNo4avrz2pmEmJkl8HYSy0ZqPXD40jpxOt9W488KpXPx9qFalfJ98oTk5OT1tfG5p6bhMOj0mnT0mnT6TzoBJZ59J54BJ55BJx+lyCXFFtMMV0g5XTDtcQe1wRbXDFdYOV1w7XIHtcEW2yxXZLttazRXZLldku0aRLdLp7e3KY6q1MloifQMZ8hyZyZBnyEyGPD9mMuS8N5MhZ72ZDDnnzWTIGW8mQ853Mxk6kRnqMMUxncYMdZgimU5ihjpMsUynMEMdpmimE5ihDlM80+nLUIdrXWaKZzp3Gerox/N9EGXmaetKvaSvQ54eQx3y9BjqkKfHUIec7oY65HQ31CGnu6EOOd0NdcjpbqhD5y9TIa6IpjOYqRBXTNM5zFSIK6rpLGYqxBXXdB4zFeKKbDqTmQqxrdVckU0nM1Mh/ch+/N5i7XOFqTTXXfmH3vzBwwwWbv0Wvfot9uq36NdvMajfYr9+i4P6LQ7rt1jJ7HV5bGB+l3wwy+dBf7LF50F/6MXnQX/Sy+dBfwjM50F/PsznQX90zOdBf6rMl/82MM/dTeTxDSRydwOZ3K2Wytc+vlGvrJo/35HBgr4abBb0xWCzoK8FmwVdVrFZ0GUVmwVdVrFZ0GUVmwVdVrFZlHxzzedBf/XH50GXVXwedFnF50GXVXwedFnF50GXVXwedFnF50GXVXwedFnFl/82MM9LvuLn89hAIi8pq/g8qqXytU/J0iur5o/RYrCgrwabBX0x2Czoa8FmQZdVbBZ0WcVmQZdVbBZ0WcVmQZdVbBYlZRWfB73c8nnQZRWfB11W8XnQZRWfB11W8XnQZRWfB11W8XnQZRWfB11W8eW/DczzkrKKz2MDibykrOLzqJbK1z6MRK+smj+thMGCvhpsFvTFYLOgrwWbBV1WsVnQZRWbBV1WsVnQZRWbBV1WsVmUlFV8HvRyy+dBl1V8HnRZxedBl1V8HnRZxedBl1V8HnRZxedBl1V8HnRZxZf/NjDPS8oqPo8NJPKSsorPo1oqX9vzXa+smjeFZ7CgrwabBX0x2Czoa8FmQZdVbBZ0WcVmQZdVbBZ0WcVmQZdVbBYlZRWfB73c8nnQZRWfB11W8XnQZRWfB11W8XnQZRWfB11W8XnQZRWfB11W8eW/DczzkrKKz2MDibykrOLzqJbK17bW1Sur5r13GSzoq8FmQV8MNgv6WrBZ0GUVmwVdVrFZ0GUVmwVdVrFZ0GUVm0VJWcXnQS+3fB50WcXnQZdVfB50WcXnQZdVfB50WcXnQZdVfB50WcXnQZdVfPlvA/O8pKzi89hAIi8pq/g8qqXytR0M9cqqeYtDBgv6arBZ0BeDzYK+FmwWdFnFZkGXVWwWdFnFZkGXVWwWdFnFZlHabI3Lg15u+TzKGllxeZT1uOLyKGt/xeVR1vONy6OsHRyXR1mnOC6PsiZyXB5l/eW48t8G5nlpVzoujw0k8pKyis9jfSr/qNPhddG8WRyLSN4vG8gWfWOb6d2oVXSAXdsqdtkBOpXZ63ga+Wmz320Jx+m3RE/9ze3rtZt9yDEeG1v7/omXyVGczF49BOm8g/Lj8Wu0mc4F3iW+TN5PVUNj7R0Vx2yV4xfppdNEzjFUT+bFea+5xTeGMYxhDGMYwxjGMIYxjGEMYxjDGMYwhjGMYQxjGMMYxjCGMYxhDGMYwxjGMIYxjGEMYxjDGMYwhjGMYQxjGMMYxjCGMYxhDGMYwxjGMIb/p4ZnnfhOJkngy188dWOt0+la3q+qbo1NV2+NPZdJINPF7bWN1vIG4kkYZ50wiOTaW2TTL92nu/7O2rRTPHp+EodeFsRRDtVIMzlpX8nrOJENvTuff5YjGfmrBzR/rTnotkRP3bncVTcyqz8aobzOFNga6aVs53Iks9MoU+cnt7ieRsOCtLkj/lgjsSSUj3tfrL2XW23BtWhm4yDtpMVV0TNS25OdOvn5O/WG4+Z/gU3Vlvjq1vGcfaF7OYnTQAm+yV/WOZrlpmS+QJXE92ZIS6wg8qWaD22nZbj3crupuuN1IEMVb83FOZ3Pk1ESTyfSF99/L/62eP2hczn20sX972qC7TwdnX1xND8hHW80OlMenVBGo2wsXgpX/FM0XoVhQxytviMNg6Fstp2di+7HnbXz7dmRxIlo3uSH0v1B3OQ2i1Bd+KrX/p6vOOYXSG0qjBd6FzcfO5/kTBwfH89PXjXFQnVx2W9MD3W5XSXS+1Rl58+G+5i+X52vxdEdq7BWwbCIlKKRQ+fSS9NgFEn/RLWISC+KM/mx2qlcXujJNB03q16L/JIeza9n9ZkUhkc6R9lR76zqkmZJ/Enq+czfW9UpnnjDIJvpWS3eXPmoCoulVVWV5UKyuqxUmR7Gi4/altN5deERbeGYqplMN33Wz60iq2q9//O6mkJtu7vit98/iH+/+/29OH/3/sNPv/4ofn73408n4u3p+1M9gbN81ZYPnirRRBaLNE4yEU1v8zgYiqKlSSq8dJgXL0E00lBcnnul8yQzey1xpb+4JDKbJpGYeEkqz8LYy5qeWvJ38kv55LWr4jWtk7m+RHtiuziEdcKf6+308lh/FtO9mOzNF7689qZhJiZJnK9h8kVLvPju4ODk5PT0Rc2NZ4ADHOAABzjAAQ5wgAMc4ADnfxNHpNPb/J/AwpfqReF7M0WUSB80oAENaEADGtCABjSgAQ1oQFNOc1/8NOtPNFfhVAIHOMABDnCAAxzgAAc4wAEOcKrgPD430FHPDTyfUs8N7DnFN2yvXu3tHR6CFKQgBSlIQQpSkIIUpCAFKUhBCtLtIHULUi+jSLsFaa/nugcDkIIUpCAFKUhBClKQghSkIAUpSEG6HaQ9RXqWBASpe1iQOs7+fq8HUpCCFKQgBSlIQQpSkIIUpCAFKUi3g3RPkX4YTynSg4L0MN/6r0EKUpCCFKQgBSlIQQpSkIIUpCAF6XaQ9hXpv6RPke4XpG/enJzs74MUpCAFKUhBClKQghSkIAUpSEEK0u0gHRSfTEwlRTooSE9OBgOQghSkIAUpSEEKUpCCFKQgBSlIQbotpPuK9JeY6izo9gvSgwPX7fdBClKQghSkIAUpSEEKUpCCFKQgBenGSJcofuLdN9eKPXSyIAvl+dibyE4mH7Lmi7fxNEnXY8ye7/kmuJVRGsRRKNNCYY3E7q545fvCE4WSuA+ysUjjWyn83po907tRx5tMZOQ3G8q7sbNmh+XW8bIsaTYeGi0x6BruNMt3cvV3SrNZKOd4bS8ajuMk378RymsD2oXGdRxl7XsZjMaZ0riKQ19fY35tziftsySXuXwvMy8IxfksbffEWZi0HXE+HLdPxNvfwuFt1k7jaX4Z/vOr+PX05LV6WyZvRU/8dv4f8W44VO99sVN2YV/upsMkmGT/IN/zctcP7r48TO5Di+VaIvCPG0MV9Sf5EXpBJJPLvX5DFGfvuOEH6ST0ZkdBFOZD7aswHn76oUHz5aLzQxDZbJLvr07g7o13581fLd1TbXdeogJUHAs/uJ2EshPJ+/O7UbPx3XPGltjrdos/1k44Jet7mZfrXvzRCL0rGTaOGr689qZhJiZJfB2EstGaj1w+NI6cTrfVuPPCqVz8fajWpXyffKk5OTk9bXxuaem4TDo9Jp09Jp0+k86ASWefSeeASeeQScfpcglxRbTDFdIOV0w7XEHtcEW1wxXWDldcO1yB7XBFtssV2S7bWs0V2S5XZLtGkS3S6e3tyoOqtTJaIn0DGfIcmcmQZ8hMhjw/ZjLkvDeTIWe9mQw5581kyBlvJkPOdzMZOpEZ6jDFMZ3GDHWYIplOYoY6TLFMpzBDHaZophOYoQ5TPNPpy1CHa11mimc6dxnq6MfzfRBl5mnrSr2kr0OeHkMd8vQY6pCnx1CHnO6GOuR0N9Qhp7uhDjndDXXI6W6oQ+cvUyGuiKYzmKkQV0zTOcxUiCuq6SxmKsQV13QeMxXiimw6k5kKsa3VXJFNJzNTIf3IfvzmYu2Thak01135h9780cMMFm79Fr36Lfbqt+jXbzGo32K/fouD+i0O67dYyex1eWxgfpd8MMvnQX+yxedBf+jF50F/0svnQX8IzOdBfz7M50F/dMznQX+qzJf/NjDP3U3k8Q0kcncDmdytlsrXPsBRr6yaP+GRwYK+GmwW9MVgs6CvBZsFXVaxWdBlFZsFXVaxWdBlFZsFXVaxWZR8c83nQX/1x+dBl1V8HnRZxedBl1V8HnRZxedBl1V8HnRZxedBl1V8HnRZxZf/NjDPS77i5/PYQCIvKav4PKql8rXPydIrq+YP0mKwoK8GmwV9Mdgs6GvBZkGXVWwWdFnFZkGXVWwWdFnFZkGXVWwWJWUVnwe93PJ50GUVnwddVvF50GUVnwddVvF50GUVnwddVvF50GUVnwddVvHlvw3M85Kyis9jA4m8pKzi86iWytc+jkSvrJo/r4TBgr4abBb0xWCzoK8FmwVdVrFZ0GUVmwVdVrFZ0GUVmwVdVrFZlJRVfB70csvnQZdVfB50WcXnQZdVfB50WcXnQZdVfB50WcXnQZdVfB50WcWX/zYwz0vKKj6PDSTykrKKz6NaKl/b9V2vrJq3hWewoK8GmwV9Mdgs6GvBZkGXVWwWdFnFZkGXVWwWdFnFZkGXVWwWJWUVnwe93PJ50GUVnwddVvF50GUVnwddVvF50GUVnwddVvF50GUVnwddVvHlvw3M85Kyis9jA4m8pKzi86iWytc219Urq+bddxks6KvBZkFfDDYL+lqwWdBlFZsFXVaxWdBlFZsFXVaxWdBlFZtFSVnF50Evt3wedFnF50GXVXwedFnF50GXVXwedFnF50GXVXwedFnF50GXVXz5bwPzvKSs4vPYQCIvKav4PKql8rU9DPXKqnmTQwYL+mqwWdAXg82CvhZsFnRZxWZBl1VsFnRZxWZBl1VsFnRZxWZR2myNy4Nebvk8yhpZcXmU9bji8ihrf8XlUdbzjcujrB0cl0dZpzguj7ImclweZf3luPLfBuZ5aVc6Lo8NJPKSsorPY30q/6jT4XXRvlkci0jeLxvIFn1jm+ndqFV0gF3bKnbZAzqV2et4Gvlps99tCcfpt0RP/c3t67WbfcgxHltb+/6Jl8lRnMxePQTpvIfy4/FrNJrOBd4lvkzeT1VLY+0dFcdsleMX6aXTRM4xVFfmxXmvuck3hjGMYQxjGMMYxjCGMYxhDGMYwxjGMIYxjGEMYxjDGMYwhjGMYQxjGMMYxjCGMYxhDGMYwxjGMIYxjGEMYxjDGMYwhjGMYQxjGMMYxjCG/6eGZ534TiZJ4MtfPHVjrdPpWt6vqm6NTVdvjT2XSSDTxe21jdbyBuJJGGedMIjk2ltk0y/dp7v+ztq0Uzx6fhKHXhbEUQ7VSDM5aV/J6ziRDb07n3+WIxn5qwc0f6056LZET9253FU3Mqs/GqG8zhTYGumlbOdyJLPTKFPnJ7e4nkbDgrS5I/5YI7EklI97X6y9l1ttwbVoZuMg7aTFVdEzUtuTnTr5+Tv1huPmf4FN1Zb46tbxnH2hezmJ00AJvslf1jma5aZkvkCVxPdmSEusIPKlmg9tp2W493K7qbrjdSBDFW/NxTmdz5NREk8n0hfffy/+tnj9oXM59tLF/e9qgu08HZ19cTQ/IR1vNDpTHp1QRqNsLF4KV/xTNF6FYUMcrb4jDYOhbLadnYvux5218+3ZkcSJaN7kh9L9QdzkNotQXfiq1/6erzjmF0htKowXehc3Hzuf5EwcHx/PT141xUJ1cdlvTA91uV0l0vtUZefPhvuYvl+dr8XRHauwVsGwiJSikUPn0kvTYBRJ/0S1iEgvijP5sdqpXF7oyTQdN6tei/ySHs2vZ/WZFIZHOkfZUe+s6pJmSfxJ6vnM31vVKZ54wyCb6Vkt3lz5qAqLpVVVleVCsrqsVJkexouP2pbTeXXhEW3hmKqZTDd91s+tIqtqvf/zuppCbbu74rffP4h/v/v9vTh/9/7DT7/+KH5+9+NPJ+Lt6ftTPYGzfNWWD54q0UQWizROMhFNb/M4GIqipUkqvHSYFy9BNNJQXJ57pfMkM3stcaW/uCQymyaRmHhJKs/C2Muanlryd/JL+eS1q+I1rZO5vkR7Yrs4hHXCn+vt9PJYfxbTvZjszRe+vPamYSYmSZyvYfJFS7z47uDg5OT09EXNjWeAAxzgAAc4wAEOcIADHOAA538TR6TT2/yfwMKX6kXhezNFlEgfNKABDWhAAxrQgAY0oAENaEBTTnNf/DTrTzRX4VQCBzjAAQ5wgAMc4AAHOMABDnCq4Dw+N9BRzw08n1LPDew5xTdsr17t7R0eghSkIAUpSEEKUpCCFKQgBSlIQQrS7SB1C1Ivo0i7BWmv57oHA5CCFKQgBSlIQQpSkIIUpCAFKUhBuh2kPUV6lgQEqXtYkDrO/n6vB1KQghSkIAUpSEEKUpCCFKQgBSlIt4N0T5F+GE8p0oOC9DDf+q9BClKQghSkIAUpSEEKUpCCFKQgBel2kPYV6b+kT5HuF6Rv3pyc7O+DFKQgBSlIQQpSkIIUpCAFKUhBCtLtIB0Un0xMJUU6KEhPTgYDkIIUpCAFKUhBClKQghSkIAUpSEG6LaT7ivSXmOos6PYL0oMD1+33QQpSkIIUpCAFKUhBClKQghSkIAXpxkiXKH7i3TfXij10siAL5fnYm8hOJh+y5ou38TRJ12PMnu/5JriVURrEUSjTQmGNxO6ueOX7whOFkrgPsrFI41sp/N6aPdO7UcebTGTkNxvKu7GzZofl1vGyLGk2HhotMega7jTLd3L1d0qzWSjneG0vGo7jJN+/EcprA9qFxnUcZe17GYzGmdK4ikNfX2N+bc4n7d/iIMou311fnnv52T6fpe2eOAuTtiPOh+P2iXj7Wzi8zdppPM2vw39+Fb+enrxWb8vkreiJ387/I94Nh+q9L3bKruzL3XSYBJPsH+R7Xu76wd2Xh8l9aLFcSwT+cWOowv4kP1NeEMnkcm/QEMXpO274QToJvdlREIX5UPsqjIeffmjQfLno/BBENpvk+6szuHvj3XnzV0v3VNudl6gIFcfCD24noexE8v78btRsfPecsSX2ut3ij7UzTsn6Xubluhd/NELvSoaNo4Yvr71pmIlJEl8HoWy05iOXD40jp9NtNe68cCobR4PDzuGT7eCw1RiqZSpXyFeek5PT08bnlpaqW4tqrxbVvVpU+7WoDmpR3a9F9aAW1cNaVJ1uPbL1zC6nnunl1DO/nHommFPPDHPqmWJOPXPMqWeSOfXMMreeWebWlMPqmWVuPbPMtZhlIp3e3q48+btChZBI30BU89yaiWqeWTNRzfNqJqq5dpmJaq5cZqKa65aZqOaqZSaquWaZieoWBoaqtcwp3bLAULWWWaVbFBiq1jKvdEsCQ9VaZpZuQWCoWsvc0i0HDFXryVe1zC3dWsBQtercug+izLYMuFJv0FfVPK2Gqpqn1VBV87QaqmouWYaqmkuWoarmkmWoqrlkGapqLlmGqrr1gKlsPbNLtyIwla1nfunWBKay9cww3arAVLaeOaZbF5jK1jPLdCsDU9maclg9s0y3ODCVNZplH3W+cFh8nSiORSTvl99nFF9jNNO7Uav4QmLtNxfL7yRTmb2Op5GfNvvdlnCcfkv01N/cvt63Hw85xuNXrb5/4mVyFCezVw9BOv9O7/FUaHzxmQu8S3yZvJ+qr9i0d1Qcs1WOX6SXThM5x1DfEi4uge1XucX3SKtW5zIJZLrAzZ0WF2QSxllHfbm11jL90nGvJ007RdxN4tDLgjjKoRppJiftK3kdJ7KhF0k/y5GM/NUDmr/WHORR0FORoL4Mc9Qfi29K136JvJTtXI5kdhpl6vzkFtfTaFiQNnfEHxpflSpC+bj3xdq5obbgWjSzcZDmca320zNS25OdOvn5O/WG4+Z/gU3VlviL7wYXupeTOA2U4Jv8ZZ2jWW5K5gtUSXxvhrTECiJfqonbdlqGey+3m6o7XgcyVPHWXJzT+TwZJfF0In3x/ffib4vXHzqXYy9drCdqgu08HZ19cTQ/IR1vNDpTHp1QRqNsLF4KV/xTNF6FYUMcrb4jDYOhbLadnYvux5218+3ZkcSJaN7kh9L9QdzkNotQXfiq1/5+LBzzC6Q2FcYLvYubj51PMl/ejo/nJ6+aYqG6uOw3poe63K4S6X2qsvNnw31M36/O1+LojlVYq2BYREqRGDuX858BSb/4IVB6UZzJj9VO5fJCT6bpuFn1WuSX9Gh+PavPpDA80jnKjnpnVZc0S+JPUs9n/t6qTvHEGwbZTM9q8ebKR1VYLK2qqiwXktVlpcr0MF581LaczqsLj2gLx1TNZLrps35uFVlV6/2f19UUatvdFb/9/kH8+93v78X5u/cffvr1R/Hzux9/OhFvT9+f6gmc5au2fPBUiSayWKRxXkhH09s8DoaiKBFT4aXDvHgJopGG4vLcK50nmdlriSv9xSWR2TSJxMRLUnkWxl7W9NSSv5NfyievXRWvaZ3M9SXaE9vFIawT/vwVfq75py9gF7/JVF+ofpVfjwIHOMABDnCAAxzgAAc4wAHO1uM8/4GLIkqkDxrQgAY0oAENaEADGtCABjSgKad59pNARaN+4gcc4AAHOMABDnCAAxzgAAc4wPmKTRI/yNuJTLxsmkjRPNtBm8Rvqk3ivzwVcW9l8Z9Xt1eBjDKhLpnqeyj9aX7+22K/e7YdLRD3t6AF4v7GWiAWN55WbcHEpNNj0tlj0ukz6QyYdPaZdA6YdA6ZdFZ6C1gJcUW0wxXSDldMO1xB7XBFtcMV1g5XXDtcge1wRbbLFdku21rNFdkuV2S7RpGt37JvRap6kz4LGfIMVW/EZyFDzvvqzfYsZMg5X72hnoUMOd8tmubZ6DDFMZ3GLFrh2egwhTKdwywa3NnoMEUzncAs2tbZrINM8UxnL4tmdDY6TPFMp67qLeZWZCyaytnokKfHonGcjQ453S2aw9nokNPdogGcjQ453W2avFkJcUU0ncFsWrdZCXEFNZ3EbBqyWQlxxTWdx2zarFmtjFyRTacym+ZpVkJckU1nM7RE24qWaBjGMIYxjGEMYxjDGMYwhjGMYQxjGMMY/paGZ534TiZJ4MtfPPVBldPpoiX+kyNBS/zHDS3xjTa0xEdLfIMNLfH/vKEl/p83tMQ33NASHy3xv7ihJT5wgAMc4AAHOMABDnCAAxzgAGcbGkqCBjSgAQ1oQAMa0IAGNKABzfbQ/GUaWQIHOMABDnCAAxzgAAc4wAFOdb+v0BL/TXArozSIo1CmKRrif1sN8ePkkzi9vg6GgYyGs8c2+JttgL94959Gnv7/8u/z/z6qL/7y+J+r2J+p/46z2/Af/+//A75S3lc="
               },
               {
                  "name" : "annual_peak_electric_demand",
                  "units" : "kW",
                  "value" : 71.891600000000011
               },
               {
                  "name" : "first_year_capital_cost",
                  "units" : "$",
                  "value" : 0
               },
               {
                  "name" : "annual_utility_cost",
                  "units" : "$",
                  "value" : 28261.650000000001
               },
               {
                  "name" : "total_lifecycle_cost",
                  "units" : "$",
                  "value" : 480930.33000000002
               }
            ],
            "step_warnings" : []
         }
      }
   ],
   "updated_at" : "20170710T193805Z",
   "weather_file" : "USA_CO_Denver.Intl.AP.725650_TMY3.epw"
}
