{
   "completed_at" : "20170710T191907Z",
   "completed_status" : "Success",
   "created_at" : "2017-07-10 19:12:31 +0000",
   "current_step" : 5,
   "description" : "",
   "eplusout_err" : "Program Version,EnergyPlus, Version 8.7.0-78a111df4a, YMD=2017.07.10 19:16,IDD_Version 8.7.0\n   ************* IDF Context for following error/warning message:\n   ************* Note -- lines truncated at 300 characters, if necessary...\n   *************      5 Building,\n   ************* indicated Name=NECB 2011-PrimarySchool-NECB HDD Method-CAN_PQ_Quebec.717140_CWEC.epw created: 2017-07-10 19:12:38 +0000\n   ************* Only last 1 lines before error line shown.....\n   *************      6   NECB 2011-PrimarySchool-NECB HDD Method-CAN_PQ_Quebec.717140_CWEC.epw created: 2017-07-10 19:12:38 +0000, !- Name\n   ** Warning ** IP: IDF line~6 Alpha Argument length exceeds maximum, will be truncated=  NECB 2011-PrimarySchool-NECB HDD Method-CAN_PQ_Quebec.717140_CWEC.epw created: 2017-07-10 19:12:38 +000\n   **   ~~~   ** Will be processed as Alpha=NECB 2011-PRIMARYSCHOOL-NECB HDD METHOD-CAN_PQ_QUEBEC.717140_CWEC.EPW CREATED: 2017-07-10 19:12:38 +0000\n   ************* IDF Context for following error/warning message:\n   ************* Note -- lines truncated at 300 characters, if necessary...\n   *************   1050 Schedule:Week:Daily,\n   ************* indicated Name=Schedule:Week:Daily {a2ccc7e2-c1f4-4313-8bc2-c43dcff35509}\n   ************* Only last 10 lines before error line shown.....\n   *************   1051   Schedule:Week:Daily {a2ccc7e2-c1f4-4313-8bc2-c43dcff35509}, !- Name\n   *************   1052   Sp-Cafeteria_ZN_1_FLR_1 Sys-3 Flr-1 Sch-C HPlcmt-north ZN NECB System 3 PSZ Occ Sch Sunday, !- Sunday Schedule:Day Name\n   *************   1053   Sp-Cafeteria_ZN_1_FLR_1 Sys-3 Flr-1 Sch-C HPlcmt-north ZN NECB System 3 PSZ Occ Sch Monday, !- Monday Schedule:Day Name\n   *************   1054   Sp-Cafeteria_ZN_1_FLR_1 Sys-3 Flr-1 Sch-C HPlcmt-north ZN NECB System 3 PSZ Occ Sch Tuesday, !- Tuesday Schedule:Day Name\n   *************   1055   Sp-Cafeteria_ZN_1_FLR_1 Sys-3 Flr-1 Sch-C HPlcmt-north ZN NECB System 3 PSZ Occ Sch Wednesday, !- Wednesday Schedule:Day Name\n   *************   1056   Sp-Cafeteria_ZN_1_FLR_1 Sys-3 Flr-1 Sch-C HPlcmt-north ZN NECB System 3 PSZ Occ Sch Thursday, !- Thursday Schedule:Day Name\n   *************   1057   Sp-Cafeteria_ZN_1_FLR_1 Sys-3 Flr-1 Sch-C HPlcmt-north ZN NECB System 3 PSZ Occ Sch Friday, !- Friday Schedule:Day Name\n   *************   1058   Sp-Cafeteria_ZN_1_FLR_1 Sys-3 Flr-1 Sch-C HPlcmt-north ZN NECB System 3 PSZ Occ Sch Saturday, !- Saturday Schedule:Day Name\n   *************   1059   Sp-Cafeteria_ZN_1_FLR_1 Sys-3 Flr-1 Sch-C HPlcmt-north ZN NECB System 3 PSZ Occ Sch Default, !- Holiday Schedule:Day Name\n   *************   1060   Sp-Cafeteria_ZN_1_FLR_1 Sys-3 Flr-1 Sch-C HPlcmt-north ZN NECB System 3 PSZ Occ Sch Summer Design Day, !- SummerDesignDay Schedule:Day Name\n   ** Warning ** IP: IDF line~1060 Alpha Argument length exceeds maximum, will be truncated=  Sp-Cafeteria_ZN_1_FLR_1 Sys-3 Flr-1 Sch-C HPlcmt-north ZN NECB System 3 PSZ Occ Sch Summer Design Da\n   **   ~~~   ** Will be processed as Alpha=SP-CAFETERIA_ZN_1_FLR_1 SYS-3 FLR-1 SCH-C HPLCMT-NORTH ZN NECB SYSTEM 3 PSZ OCC SCH SUMMER DESIGN DAY\n   ************* IDF Context for following error/warning message:\n   ************* Note -- lines truncated at 300 characters, if necessary...\n   *************   1050 Schedule:Week:Daily,\n   ************* indicated Name=Schedule:Week:Daily {a2ccc7e2-c1f4-4313-8bc2-c43dcff35509}\n   ************* Only last 10 lines before error line shown.....\n   *************   1052   Sp-Cafeteria_ZN_1_FLR_1 Sys-3 Flr-1 Sch-C HPlcmt-north ZN NECB System 3 PSZ Occ Sch Sunday, !- Sunday Schedule:Day Name\n   *************   1053   Sp-Cafeteria_ZN_1_FLR_1 Sys-3 Flr-1 Sch-C HPlcmt-north ZN NECB System 3 PSZ Occ Sch Monday, !- Monday Schedule:Day Name\n   *************   1054   Sp-Cafeteria_ZN_1_FLR_1 Sys-3 Flr-1 Sch-C HPlcmt-north ZN NECB System 3 PSZ Occ Sch Tuesday, !- Tuesday Schedule:Day Name\n   *************   1055   Sp-Cafeteria_ZN_1_FLR_1 Sys-3 Flr-1 Sch-C HPlcmt-north ZN NECB System 3 PSZ Occ Sch Wednesday, !- Wednesday Schedule:Day Name\n   *************   1056   Sp-Cafeteria_ZN_1_FLR_1 Sys-3 Flr-1 Sch-C HPlcmt-north ZN NECB System 3 PSZ Occ Sch Thursday, !- Thursday Schedule:Day Name\n   *************   1057   Sp-Cafeteria_ZN_1_FLR_1 Sys-3 Flr-1 Sch-C HPlcmt-north ZN NECB System 3 PSZ Occ Sch Friday, !- Friday Schedule:Day Name\n   *************   1058   Sp-Cafeteria_ZN_1_FLR_1 Sys-3 Flr-1 Sch-C HPlcmt-north ZN NECB System 3 PSZ Occ Sch Saturday, !- Saturday Schedule:Day Name\n   *************   1059   Sp-Cafeteria_ZN_1_FLR_1 Sys-3 Flr-1 Sch-C HPlcmt-north ZN NECB System 3 PSZ Occ Sch Default, !- Holiday Schedule:Day Name\n   *************   1060   Sp-Cafeteria_ZN_1_FLR_1 Sys-3 Flr-1 Sch-C HPlcmt-north ZN NECB System 3 PSZ Occ Sch Summer Design Day, !- SummerDesignDay Schedule:Day Name\n   *************   1061   Sp-Cafeteria_ZN_1_FLR_1 Sys-3 Flr-1 Sch-C HPlcmt-north ZN NECB System 3 PSZ Occ Sch Winter Design Day, !- WinterDesignDay Schedule:Day Name\n   ** Warning ** IP: IDF line~1061 Alpha Argument length exceeds maximum, will be truncated=  Sp-Cafeteria_ZN_1_FLR_1 Sys-3 Flr-1 Sch-C HPlcmt-north ZN NECB System 3 PSZ Occ Sch Winter Design Da\n   **   ~~~   ** Will be processed as Alpha=SP-CAFETERIA_ZN_1_FLR_1 SYS-3 FLR-1 SCH-C HPLCMT-NORTH ZN NECB SYSTEM 3 PSZ OCC SCH WINTER DESIGN DAY\n   ************* IDF Context for following error/warning message:\n   ************* Note -- lines truncated at 300 characters, if necessary...\n   *************   1081 Schedule:Day:Interval,\n   ************* indicated Name=Sp-Cafeteria_ZN_1_FLR_1 Sys-3 Flr-1 Sch-C HPlcmt-north ZN NECB System 3 PSZ Occ Sch Summer Design Day\n   ************* Only last 1 lines before error line shown.....\n   *************   1082   Sp-Cafeteria_ZN_1_FLR_1 Sys-3 Flr-1 Sch-C HPlcmt-north ZN NECB System 3 PSZ Occ Sch Summer Design Day, !- Name\n   ** Warning ** IP: IDF line~1082 Alpha Argument length exceeds maximum, will be truncated=  Sp-Cafeteria_ZN_1_FLR_1 Sys-3 Flr-1 Sch-C HPlcmt-north ZN NECB System 3 PSZ Occ Sch Summer Design Da\n   **   ~~~   ** Will be processed as Alpha=SP-CAFETERIA_ZN_1_FLR_1 SYS-3 FLR-1 SCH-C HPLCMT-NORTH ZN NECB SYSTEM 3 PSZ OCC SCH SUMMER DESIGN DAY\n   ************* IDF Context for following error/warning message:\n   ************* Note -- lines truncated at 300 characters, if necessary...\n   *************   1088 Schedule:Day:Interval,\n   ************* indicated Name=Sp-Cafeteria_ZN_1_FLR_1 Sys-3 Flr-1 Sch-C HPlcmt-north ZN NECB System 3 PSZ Occ Sch Winter Design Day\n   ************* Only last 1 lines before error line shown.....\n   *************   1089   Sp-Cafeteria_ZN_1_FLR_1 Sys-3 Flr-1 Sch-C HPlcmt-north ZN NECB System 3 PSZ Occ Sch Winter Design Day, !- Name\n   ** Warning ** IP: IDF line~1089 Alpha Argument length exceeds maximum, will be truncated=  Sp-Cafeteria_ZN_1_FLR_1 Sys-3 Flr-1 Sch-C HPlcmt-north ZN NECB System 3 PSZ Occ Sch Winter Design Da\n   **   ~~~   ** Will be processed as Alpha=SP-CAFETERIA_ZN_1_FLR_1 SYS-3 FLR-1 SCH-C HPLCMT-NORTH ZN NECB SYSTEM 3 PSZ OCC SCH WINTER DESIGN DAY\n   ************* IDF Context for following error/warning message:\n   ************* Note -- lines truncated at 300 characters, if necessary...\n   *************   1438 Schedule:Week:Daily,\n   ************* indicated Name=Schedule:Week:Daily {350e0e24-aec4-4cff-bdb7-59a49a244c81}\n   ************* Only last 10 lines before error line shown.....\n   *************   1439   Schedule:Week:Daily {350e0e24-aec4-4cff-bdb7-59a49a244c81}, !- Name\n   *************   1440   Sp-Computer_Class_ZN_1_FLR_1 Sys-3 Flr-1 Sch-D HPlcmt-north ZN NECB System 3 PSZ Occ Sch Sunday, !- Sunday Schedule:Day Name\n   *************   1441   Sp-Computer_Class_ZN_1_FLR_1 Sys-3 Flr-1 Sch-D HPlcmt-north ZN NECB System 3 PSZ Occ Sch Monday, !- Monday Schedule:Day Name\n   *************   1442   Sp-Computer_Class_ZN_1_FLR_1 Sys-3 Flr-1 Sch-D HPlcmt-north ZN NECB System 3 PSZ Occ Sch Tuesday, !- Tuesday Schedule:Day Name\n   *************   1443   Sp-Computer_Class_ZN_1_FLR_1 Sys-3 Flr-1 Sch-D HPlcmt-north ZN NECB System 3 PSZ Occ Sch Wednesday, !- Wednesday Schedule:Day Name\n   *************   1444   Sp-Computer_Class_ZN_1_FLR_1 Sys-3 Flr-1 Sch-D HPlcmt-north ZN NECB System 3 PSZ Occ Sch Thursday, !- Thursday Schedule:Day Name\n   *************   1445   Sp-Computer_Class_ZN_1_FLR_1 Sys-3 Flr-1 Sch-D HPlcmt-north ZN NECB System 3 PSZ Occ Sch Friday, !- Friday Schedule:Day Name\n   *************   1446   Sp-Computer_Class_ZN_1_FLR_1 Sys-3 Flr-1 Sch-D HPlcmt-north ZN NECB System 3 PSZ Occ Sch Saturday, !- Saturday Schedule:Day Name\n   *************   1447   Sp-Computer_Class_ZN_1_FLR_1 Sys-3 Flr-1 Sch-D HPlcmt-north ZN NECB System 3 PSZ Occ Sch Default, !- Holiday Schedule:Day Name\n   *************   1448   Sp-Computer_Class_ZN_1_FLR_1 Sys-3 Flr-1 Sch-D HPlcmt-north ZN NECB System 3 PSZ Occ Sch Summer Design Day, !- SummerDesignDay Schedule:Day Name\n   ** Warning ** IP: IDF line~1448 Alpha Argument length exceeds maximum, will be truncated=  Sp-Computer_Class_ZN_1_FLR_1 Sys-3 Flr-1 Sch-D HPlcmt-north ZN NECB System 3 PSZ Occ Sch Summer Design Da\n   **   ~~~   ** Will be processed as Alpha=SP-COMPUTER_CLASS_ZN_1_FLR_1 SYS-3 FLR-1 SCH-D HPLCMT-NORTH ZN NECB SYSTEM 3 PSZ OCC SCH SUMMER DESIGN DAY\n   ************* IDF Context for following error/warning message:\n   ************* Note -- lines truncated at 300 characters, if necessary...\n   *************   1438 Schedule:Week:Daily,\n   ************* indicated Name=Schedule:Week:Daily {350e0e24-aec4-4cff-bdb7-59a49a244c81}\n   ************* Only last 10 lines before error line shown.....\n   *************   1440   Sp-Computer_Class_ZN_1_FLR_1 Sys-3 Flr-1 Sch-D HPlcmt-north ZN NECB System 3 PSZ Occ Sch Sunday, !- Sunday Schedule:Day Name\n   *************   1441   Sp-Computer_Class_ZN_1_FLR_1 Sys-3 Flr-1 Sch-D HPlcmt-north ZN NECB System 3 PSZ Occ Sch Monday, !- Monday Schedule:Day Name\n   *************   1442   Sp-Computer_Class_ZN_1_FLR_1 Sys-3 Flr-1 Sch-D HPlcmt-north ZN NECB System 3 PSZ Occ Sch Tuesday, !- Tuesday Schedule:Day Name\n   *************   1443   Sp-Computer_Class_ZN_1_FLR_1 Sys-3 Flr-1 Sch-D HPlcmt-north ZN NECB System 3 PSZ Occ Sch Wednesday, !- Wednesday Schedule:Day Name\n   *************   1444   Sp-Computer_Class_ZN_1_FLR_1 Sys-3 Flr-1 Sch-D HPlcmt-north ZN NECB System 3 PSZ Occ Sch Thursday, !- Thursday Schedule:Day Name\n   *************   1445   Sp-Computer_Class_ZN_1_FLR_1 Sys-3 Flr-1 Sch-D HPlcmt-north ZN NECB System 3 PSZ Occ Sch Friday, !- Friday Schedule:Day Name\n   *************   1446   Sp-Computer_Class_ZN_1_FLR_1 Sys-3 Flr-1 Sch-D HPlcmt-north ZN NECB System 3 PSZ Occ Sch Saturday, !- Saturday Schedule:Day Name\n   *************   1447   Sp-Computer_Class_ZN_1_FLR_1 Sys-3 Flr-1 Sch-D HPlcmt-north ZN NECB System 3 PSZ Occ Sch Default, !- Holiday Schedule:Day Name\n   *************   1448   Sp-Computer_Class_ZN_1_FLR_1 Sys-3 Flr-1 Sch-D HPlcmt-north ZN NECB System 3 PSZ Occ Sch Summer Design Day, !- SummerDesignDay Schedule:Day Name\n   *************   1449   Sp-Computer_Class_ZN_1_FLR_1 Sys-3 Flr-1 Sch-D HPlcmt-north ZN NECB System 3 PSZ Occ Sch Winter Design Day, !- WinterDesignDay Schedule:Day Name\n   ** Warning ** IP: IDF line~1449 Alpha Argument length exceeds maximum, will be truncated=  Sp-Computer_Class_ZN_1_FLR_1 Sys-3 Flr-1 Sch-D HPlcmt-north ZN NECB System 3 PSZ Occ Sch Winter Design Da\n   **   ~~~   ** Will be processed as Alpha=SP-COMPUTER_CLASS_ZN_1_FLR_1 SYS-3 FLR-1 SCH-D HPLCMT-NORTH ZN NECB SYSTEM 3 PSZ OCC SCH WINTER DESIGN DAY\n   ************* IDF Context for following error/warning message:\n   ************* Note -- lines truncated at 300 characters, if necessary...\n   *************   1469 Schedule:Day:Interval,\n   ************* indicated Name=Sp-Computer_Class_ZN_1_FLR_1 Sys-3 Flr-1 Sch-D HPlcmt-north ZN NECB System 3 PSZ Occ Sch Summer Design Day\n   ************* Only last 1 lines before error line shown.....\n   *************   1470   Sp-Computer_Class_ZN_1_FLR_1 Sys-3 Flr-1 Sch-D HPlcmt-north ZN NECB System 3 PSZ Occ Sch Summer Design Day, !- Name\n   ** Warning ** IP: IDF line~1470 Alpha Argument length exceeds maximum, will be truncated=  Sp-Computer_Class_ZN_1_FLR_1 Sys-3 Flr-1 Sch-D HPlcmt-north ZN NECB System 3 PSZ Occ Sch Summer Design Da\n   **   ~~~   ** Will be processed as Alpha=SP-COMPUTER_CLASS_ZN_1_FLR_1 SYS-3 FLR-1 SCH-D HPLCMT-NORTH ZN NECB SYSTEM 3 PSZ OCC SCH SUMMER DESIGN DAY\n   ************* IDF Context for following error/warning message:\n   ************* Note -- lines truncated at 300 characters, if necessary...\n   *************   1476 Schedule:Day:Interval,\n   ************* indicated Name=Sp-Computer_Class_ZN_1_FLR_1 Sys-3 Flr-1 Sch-D HPlcmt-north ZN NECB System 3 PSZ Occ Sch Winter Design Day\n   ************* Only last 1 lines before error line shown.....\n   *************   1477   Sp-Computer_Class_ZN_1_FLR_1 Sys-3 Flr-1 Sch-D HPlcmt-north ZN NECB System 3 PSZ Occ Sch Winter Design Day, !- Name\n   ** Warning ** IP: IDF line~1477 Alpha Argument length exceeds maximum, will be truncated=  Sp-Computer_Class_ZN_1_FLR_1 Sys-3 Flr-1 Sch-D HPlcmt-north ZN NECB System 3 PSZ Occ Sch Winter Design Da\n   **   ~~~   ** Will be processed as Alpha=SP-COMPUTER_CLASS_ZN_1_FLR_1 SYS-3 FLR-1 SCH-D HPLCMT-NORTH ZN NECB SYSTEM 3 PSZ OCC SCH WINTER DESIGN DAY\n   ************* IDF Context for following error/warning message:\n   ************* Note -- lines truncated at 300 characters, if necessary...\n   *************   1753 Schedule:Day:Interval,\n   ************* indicated Name=Sp-Corner_Class_1_Pod_1_ZN_1_FLR_1 Sys-3 Flr-1 Sch-D HPlcmt-south ZN NECB System 3 PSZ Occ Sch Sunday\n   ************* Only last 1 lines before error line shown.....\n   *************   1754   Sp-Corner_Class_1_Pod_1_ZN_1_FLR_1 Sys-3 Flr-1 Sch-D HPlcmt-south ZN NECB System 3 PSZ Occ Sch Sunday, !- Name\n   ** Warning ** IP: IDF line~1754 Alpha Argument length exceeds maximum, will be truncated=  Sp-Corner_Class_1_Pod_1_ZN_1_FLR_1 Sys-3 Flr-1 Sch-D HPlcmt-south ZN NECB System 3 PSZ Occ Sch Sunda\n   **   ~~~   ** Will be processed as Alpha=SP-CORNER_CLASS_1_POD_1_ZN_1_FLR_1 SYS-3 FLR-1 SCH-D HPLCMT-SOUTH ZN NECB SYSTEM 3 PSZ OCC SCH SUNDAY\n   ************* IDF Context for following error/warning message:\n   ************* Note -- lines truncated at 300 characters, if necessary...\n   *************   1760 Schedule:Day:Interval,\n   ************* indicated Name=Sp-Corner_Class_1_Pod_1_ZN_1_FLR_1 Sys-3 Flr-1 Sch-D HPlcmt-south ZN NECB System 3 PSZ Occ Sch Monday\n   ************* Only last 1 lines before error line shown.....\n   *************   1761   Sp-Corner_Class_1_Pod_1_ZN_1_FLR_1 Sys-3 Flr-1 Sch-D HPlcmt-south ZN NECB System 3 PSZ Occ Sch Monday, !- Name\n   ** Warning ** IP: IDF line~1761 Alpha Argument length exceeds maximum, will be truncated=  Sp-Corner_Class_1_Pod_1_ZN_1_FLR_1 Sys-3 Flr-1 Sch-D HPlcmt-south ZN NECB System 3 PSZ Occ Sch Monda\n   **   ~~~   ** Will be processed as Alpha=SP-CORNER_CLASS_1_POD_1_ZN_1_FLR_1 SYS-3 FLR-1 SCH-D HPLCMT-SOUTH ZN NECB SYSTEM 3 PSZ OCC SCH MONDAY\n   ************* IDF Context for following error/warning message:\n   ************* Note -- lines truncated at 300 characters, if necessary...\n   *************   1775 Schedule:Day:Interval,\n   ************* indicated Name=Sp-Corner_Class_1_Pod_1_ZN_1_FLR_1 Sys-3 Flr-1 Sch-D HPlcmt-south ZN NECB System 3 PSZ Occ Sch Tuesday\n   ************* Only last 1 lines before error line shown.....\n   *************   1776   Sp-Corner_Class_1_Pod_1_ZN_1_FLR_1 Sys-3 Flr-1 Sch-D HPlcmt-south ZN NECB System 3 PSZ Occ Sch Tuesday, !- Name\n   ** Warning ** IP: IDF line~1776 Alpha Argument length exceeds maximum, will be truncated=  Sp-Corner_Class_1_Pod_1_ZN_1_FLR_1 Sys-3 Flr-1 Sch-D HPlcmt-south ZN NECB System 3 PSZ Occ Sch Tuesda\n   **   ~~~   ** Will be processed as Alpha=SP-CORNER_CLASS_1_POD_1_ZN_1_FLR_1 SYS-3 FLR-1 SCH-D HPLCMT-SOUTH ZN NECB SYSTEM 3 PSZ OCC SCH TUESDAY\n   ************* IDF Context for following error/warning message:\n   ************* Note -- lines truncated at 300 characters, if necessary...\n   *************   1790 Schedule:Day:Interval,\n   ************* indicated Name=Sp-Corner_Class_1_Pod_1_ZN_1_FLR_1 Sys-3 Flr-1 Sch-D HPlcmt-south ZN NECB System 3 PSZ Occ Sch Wednesday\n   ************* Only last 1 lines before error line shown.....\n   *************   1791   Sp-Corner_Class_1_Pod_1_ZN_1_FLR_1 Sys-3 Flr-1 Sch-D HPlcmt-south ZN NECB System 3 PSZ Occ Sch Wednesday, !- Name\n   ** Warning ** IP: IDF line~1791 Alpha Argument length exceeds maximum, will be truncated=  Sp-Corner_Class_1_Pod_1_ZN_1_FLR_1 Sys-3 Flr-1 Sch-D HPlcmt-south ZN NECB System 3 PSZ Occ Sch Wednesda\n   **   ~~~   ** Will be processed as Alpha=SP-CORNER_CLASS_1_POD_1_ZN_1_FLR_1 SYS-3 FLR-1 SCH-D HPLCMT-SOUTH ZN NECB SYSTEM 3 PSZ OCC SCH WEDNESDAY\n   ************* IDF Context for following error/warning message:\n   ************* Note -- lines truncated at 300 characters, if necessary...\n   *************   1805 Schedule:Day:Interval,\n   ************* indicated Name=Sp-Corner_Class_1_Pod_1_ZN_1_FLR_1 Sys-3 Flr-1 Sch-D HPlcmt-south ZN NECB System 3 PSZ Occ Sch Thursday\n   ************* Only last 1 lines before error line shown.....\n   *************   1806   Sp-Corner_Class_1_Pod_1_ZN_1_FLR_1 Sys-3 Flr-1 Sch-D HPlcmt-south ZN NECB System 3 PSZ Occ Sch Thursday, !- Name\n   ** Warning ** IP: IDF line~1806 Alpha Argument length exceeds maximum, will be truncated=  Sp-Corner_Class_1_Pod_1_ZN_1_FLR_1 Sys-3 Flr-1 Sch-D HPlcmt-south ZN NECB System 3 PSZ Occ Sch Thursda\n   **   ~~~   ** Will be processed as Alpha=SP-CORNER_CLASS_1_POD_1_ZN_1_FLR_1 SYS-3 FLR-1 SCH-D HPLCMT-SOUTH ZN NECB SYSTEM 3 PSZ OCC SCH THURSDAY\n   ************* IDF Context for following error/warning message:\n   ************* Note -- lines truncated at 300 characters, if necessary...\n   *************   1820 Schedule:Day:Interval,\n   ************* indicated Name=Sp-Corner_Class_1_Pod_1_ZN_1_FLR_1 Sys-3 Flr-1 Sch-D HPlcmt-south ZN NECB System 3 PSZ Occ Sch Friday\n   ************* Only last 1 lines before error line shown.....\n   *************   1821   Sp-Corner_Class_1_Pod_1_ZN_1_FLR_1 Sys-3 Flr-1 Sch-D HPlcmt-south ZN NECB System 3 PSZ Occ Sch Friday, !- Name\n   ** Warning ** IP: IDF line~1821 Alpha Argument length exceeds maximum, will be truncated=  Sp-Corner_Class_1_Pod_1_ZN_1_FLR_1 Sys-3 Flr-1 Sch-D HPlcmt-south ZN NECB System 3 PSZ Occ Sch Frida\n   **   ~~~   ** Will be processed as Alpha=SP-CORNER_CLASS_1_POD_1_ZN_1_FLR_1 SYS-3 FLR-1 SCH-D HPLCMT-SOUTH ZN NECB SYSTEM 3 PSZ OCC SCH FRIDAY\n   ************* IDF Context for following error/warning message:\n   ************* Note -- lines truncated at 300 characters, if necessary...\n   *************   1835 Schedule:Day:Interval,\n   ************* indicated Name=Sp-Corner_Class_1_Pod_1_ZN_1_FLR_1 Sys-3 Flr-1 Sch-D HPlcmt-south ZN NECB System 3 PSZ Occ Sch Saturday\n   ************* Only last 1 lines before error line shown.....\n   *************   1836   Sp-Corner_Class_1_Pod_1_ZN_1_FLR_1 Sys-3 Flr-1 Sch-D HPlcmt-south ZN NECB System 3 PSZ Occ Sch Saturday, !- Name\n   ** Warning ** IP: IDF line~1836 Alpha Argument length exceeds maximum, will be truncated=  Sp-Corner_Class_1_Pod_1_ZN_1_FLR_1 Sys-3 Flr-1 Sch-D HPlcmt-south ZN NECB System 3 PSZ Occ Sch Saturda\n   **   ~~~   ** Will be processed as Alpha=SP-CORNER_CLASS_1_POD_1_ZN_1_FLR_1 SYS-3 FLR-1 SCH-D HPLCMT-SOUTH ZN NECB SYSTEM 3 PSZ OCC SCH SATURDAY\n   ************* IDF Context for following error/warning message:\n   ************* Note -- lines truncated at 300 characters, if necessary...\n   *************   1842 Schedule:Week:Daily,\n   ************* indicated Name=Schedule:Week:Daily {2a9596ad-49c8-46f2-ac2d-9e0dcb74e763}\n   ************* Only last 2 lines before error line shown.....\n   *************   1843   Schedule:Week:Daily {2a9596ad-49c8-46f2-ac2d-9e0dcb74e763}, !- Name\n   *************   1844   Sp-Corner_Class_1_Pod_1_ZN_1_FLR_1 Sys-3 Flr-1 Sch-D HPlcmt-south ZN NECB System 3 PSZ Occ Sch Sunday, !- Sunday Schedule:Day Name\n   ** Warning ** IP: IDF line~1844 Alpha Argument length exceeds maximum, will be truncated=  Sp-Corner_Class_1_Pod_1_ZN_1_FLR_1 Sys-3 Flr-1 Sch-D HPlcmt-south ZN NECB System 3 PSZ Occ Sch Sunda\n   **   ~~~   ** Will be processed as Alpha=SP-CORNER_CLASS_1_POD_1_ZN_1_FLR_1 SYS-3 FLR-1 SCH-D HPLCMT-SOUTH ZN NECB SYSTEM 3 PSZ OCC SCH SUNDAY\n   ************* IDF Context for following error/warning message:\n   ************* Note -- lines truncated at 300 characters, if necessary...\n   *************   1842 Schedule:Week:Daily,\n   ************* indicated Name=Schedule:Week:Daily {2a9596ad-49c8-46f2-ac2d-9e0dcb74e763}\n   ************* Only last 3 lines before error line shown.....\n   *************   1843   Schedule:Week:Daily {2a9596ad-49c8-46f2-ac2d-9e0dcb74e763}, !- Name\n   *************   1844   Sp-Corner_Class_1_Pod_1_ZN_1_FLR_1 Sys-3 Flr-1 Sch-D HPlcmt-south ZN NECB System 3 PSZ Occ Sch Sunday, !- Sunday Schedule:Day Name\n   *************   1845   Sp-Corner_Class_1_Pod_1_ZN_1_FLR_1 Sys-3 Flr-1 Sch-D HPlcmt-south ZN NECB System 3 PSZ Occ Sch Monday, !- Monday Schedule:Day Name\n   ** Warning ** IP: IDF line~1845 Alpha Argument length exceeds maximum, will be truncated=  Sp-Corner_Class_1_Pod_1_ZN_1_FLR_1 Sys-3 Flr-1 Sch-D HPlcmt-south ZN NECB System 3 PSZ Occ Sch Monda\n   **   ~~~   ** Will be processed as Alpha=SP-CORNER_CLASS_1_POD_1_ZN_1_FLR_1 SYS-3 FLR-1 SCH-D HPLCMT-SOUTH ZN NECB SYSTEM 3 PSZ OCC SCH MONDAY\n   ************* IDF Context for following error/warning message:\n   ************* Note -- lines truncated at 300 characters, if necessary...\n   *************   1842 Schedule:Week:Daily,\n   ************* indicated Name=Schedule:Week:Daily {2a9596ad-49c8-46f2-ac2d-9e0dcb74e763}\n   ************* Only last 4 lines before error line shown.....\n   *************   1843   Schedule:Week:Daily {2a9596ad-49c8-46f2-ac2d-9e0dcb74e763}, !- Name\n   *************   1844   Sp-Corner_Class_1_Pod_1_ZN_1_FLR_1 Sys-3 Flr-1 Sch-D HPlcmt-south ZN NECB System 3 PSZ Occ Sch Sunday, !- Sunday Schedule:Day Name\n   *************   1845   Sp-Corner_Class_1_Pod_1_ZN_1_FLR_1 Sys-3 Flr-1 Sch-D HPlcmt-south ZN NECB System 3 PSZ Occ Sch Monday, !- Monday Schedule:Day Name\n   *************   1846   Sp-Corner_Class_1_Pod_1_ZN_1_FLR_1 Sys-3 Flr-1 Sch-D HPlcmt-south ZN NECB System 3 PSZ Occ Sch Tuesday, !- Tuesday Schedule:Day Name\n   ** Warning ** IP: IDF line~1846 Alpha Argument length exceeds maximum, will be truncated=  Sp-Corner_Class_1_Pod_1_ZN_1_FLR_1 Sys-3 Flr-1 Sch-D HPlcmt-south ZN NECB System 3 PSZ Occ Sch Tuesda\n   **   ~~~   ** Will be processed as Alpha=SP-CORNER_CLASS_1_POD_1_ZN_1_FLR_1 SYS-3 FLR-1 SCH-D HPLCMT-SOUTH ZN NECB SYSTEM 3 PSZ OCC SCH TUESDAY\n   ************* IDF Context for following error/warning message:\n   ************* Note -- lines truncated at 300 characters, if necessary...\n   *************   1842 Schedule:Week:Daily,\n   ************* indicated Name=Schedule:Week:Daily {2a9596ad-49c8-46f2-ac2d-9e0dcb74e763}\n   ************* Only last 5 lines before error line shown.....\n   *************   1843   Schedule:Week:Daily {2a9596ad-49c8-46f2-ac2d-9e0dcb74e763}, !- Name\n   *************   1844   Sp-Corner_Class_1_Pod_1_ZN_1_FLR_1 Sys-3 Flr-1 Sch-D HPlcmt-south ZN NECB System 3 PSZ Occ Sch Sunday, !- Sunday Schedule:Day Name\n   *************   1845   Sp-Corner_Class_1_Pod_1_ZN_1_FLR_1 Sys-3 Flr-1 Sch-D HPlcmt-south ZN NECB System 3 PSZ Occ Sch Monday, !- Monday Schedule:Day Name\n   *************   1846   Sp-Corner_Class_1_Pod_1_ZN_1_FLR_1 Sys-3 Flr-1 Sch-D HPlcmt-south ZN NECB System 3 PSZ Occ Sch Tuesday, !- Tuesday Schedule:Day Name\n   *************   1847   Sp-Corner_Class_1_Pod_1_ZN_1_FLR_1 Sys-3 Flr-1 Sch-D HPlcmt-south ZN NECB System 3 PSZ Occ Sch Wednesday, !- Wednesday Schedule:Day Name\n   ** Warning ** IP: IDF line~1847 Alpha Argument length exceeds maximum, will be truncated=  Sp-Corner_Class_1_Pod_1_ZN_1_FLR_1 Sys-3 Flr-1 Sch-D HPlcmt-south ZN NECB System 3 PSZ Occ Sch Wednesda\n   **   ~~~   ** Will be processed as Alpha=SP-CORNER_CLASS_1_POD_1_ZN_1_FLR_1 SYS-3 FLR-1 SCH-D HPLCMT-SOUTH ZN NECB SYSTEM 3 PSZ OCC SCH WEDNESDAY\n   ************* IDF Context for following error/warning message:\n   ************* Note -- lines truncated at 300 characters, if necessary...\n   *************   1842 Schedule:Week:Daily,\n   ************* indicated Name=Schedule:Week:Daily {2a9596ad-49c8-46f2-ac2d-9e0dcb74e763}\n   ************* Only last 6 lines before error line shown.....\n   *************   1843   Schedule:Week:Daily {2a9596ad-49c8-46f2-ac2d-9e0dcb74e763}, !- Name\n   *************   1844   Sp-Corner_Class_1_Pod_1_ZN_1_FLR_1 Sys-3 Flr-1 Sch-D HPlcmt-south ZN NECB System 3 PSZ Occ Sch Sunday, !- Sunday Schedule:Day Name\n   *************   1845   Sp-Corner_Class_1_Pod_1_ZN_1_FLR_1 Sys-3 Flr-1 Sch-D HPlcmt-south ZN NECB System 3 PSZ Occ Sch Monday, !- Monday Schedule:Day Name\n   *************   1846   Sp-Corner_Class_1_Pod_1_ZN_1_FLR_1 Sys-3 Flr-1 Sch-D HPlcmt-south ZN NECB System 3 PSZ Occ Sch Tuesday, !- Tuesday Schedule:Day Name\n   *************   1847   Sp-Corner_Class_1_Pod_1_ZN_1_FLR_1 Sys-3 Flr-1 Sch-D HPlcmt-south ZN NECB System 3 PSZ Occ Sch Wednesday, !- Wednesday Schedule:Day Name\n   *************   1848   Sp-Corner_Class_1_Pod_1_ZN_1_FLR_1 Sys-3 Flr-1 Sch-D HPlcmt-south ZN NECB System 3 PSZ Occ Sch Thursday, !- Thursday Schedule:Day Name\n   ** Warning ** IP: IDF line~1848 Alpha Argument length exceeds maximum, will be truncated=  Sp-Corner_Class_1_Pod_1_ZN_1_FLR_1 Sys-3 Flr-1 Sch-D HPlcmt-south ZN NECB System 3 PSZ Occ Sch Thursda\n   **   ~~~   ** Will be processed as Alpha=SP-CORNER_CLASS_1_POD_1_ZN_1_FLR_1 SYS-3 FLR-1 SCH-D HPLCMT-SOUTH ZN NECB SYSTEM 3 PSZ OCC SCH THURSDAY\n   ************* IDF Context for following error/warning message:\n   ************* Note -- lines truncated at 300 characters, if necessary...\n   *************   1842 Schedule:Week:Daily,\n   ************* indicated Name=Schedule:Week:Daily {2a9596ad-49c8-46f2-ac2d-9e0dcb74e763}\n   ************* Only last 7 lines before error line shown.....\n   *************   1843   Schedule:Week:Daily {2a9596ad-49c8-46f2-ac2d-9e0dcb74e763}, !- Name\n   *************   1844   Sp-Corner_Class_1_Pod_1_ZN_1_FLR_1 Sys-3 Flr-1 Sch-D HPlcmt-south ZN NECB System 3 PSZ Occ Sch Sunday, !- Sunday Schedule:Day Name\n   *************   1845   Sp-Corner_Class_1_Pod_1_ZN_1_FLR_1 Sys-3 Flr-1 Sch-D HPlcmt-south ZN NECB System 3 PSZ Occ Sch Monday, !- Monday Schedule:Day Name\n   *************   1846   Sp-Corner_Class_1_Pod_1_ZN_1_FLR_1 Sys-3 Flr-1 Sch-D HPlcmt-south ZN NECB System 3 PSZ Occ Sch Tuesday, !- Tuesday Schedule:Day Name\n   *************   1847   Sp-Corner_Class_1_Pod_1_ZN_1_FLR_1 Sys-3 Flr-1 Sch-D HPlcmt-south ZN NECB System 3 PSZ Occ Sch Wednesday, !- Wednesday Schedule:Day Name\n   *************   1848   Sp-Corner_Class_1_Pod_1_ZN_1_FLR_1 Sys-3 Flr-1 Sch-D HPlcmt-south ZN NECB System 3 PSZ Occ Sch Thursday, !- Thursday Schedule:Day Name\n   *************   1849   Sp-Corner_Class_1_Pod_1_ZN_1_FLR_1 Sys-3 Flr-1 Sch-D HPlcmt-south ZN NECB System 3 PSZ Occ Sch Friday, !- Friday Schedule:Day Name\n   ** Warning ** IP: IDF line~1849 Alpha Argument length exceeds maximum, will be truncated=  Sp-Corner_Class_1_Pod_1_ZN_1_FLR_1 Sys-3 Flr-1 Sch-D HPlcmt-south ZN NECB System 3 PSZ Occ Sch Frida\n   **   ~~~   ** Will be processed as Alpha=SP-CORNER_CLASS_1_POD_1_ZN_1_FLR_1 SYS-3 FLR-1 SCH-D HPLCMT-SOUTH ZN NECB SYSTEM 3 PSZ OCC SCH FRIDAY\n   ************* IDF Context for following error/warning message:\n   ************* Note -- lines truncated at 300 characters, if necessary...\n   *************   1842 Schedule:Week:Daily,\n   ************* indicated Name=Schedule:Week:Daily {2a9596ad-49c8-46f2-ac2d-9e0dcb74e763}\n   ************* Only last 8 lines before error line shown.....\n   *************   1843   Schedule:Week:Daily {2a9596ad-49c8-46f2-ac2d-9e0dcb74e763}, !- Name\n   *************   1844   Sp-Corner_Class_1_Pod_1_ZN_1_FLR_1 Sys-3 Flr-1 Sch-D HPlcmt-south ZN NECB System 3 PSZ Occ Sch Sunday, !- Sunday Schedule:Day Name\n   *************   1845   Sp-Corner_Class_1_Pod_1_ZN_1_FLR_1 Sys-3 Flr-1 Sch-D HPlcmt-south ZN NECB System 3 PSZ Occ Sch Monday, !- Monday Schedule:Day Name\n   *************   1846   Sp-Corner_Class_1_Pod_1_ZN_1_FLR_1 Sys-3 Flr-1 Sch-D HPlcmt-south ZN NECB System 3 PSZ Occ Sch Tuesday, !- Tuesday Schedule:Day Name\n   *************   1847   Sp-Corner_Class_1_Pod_1_ZN_1_FLR_1 Sys-3 Flr-1 Sch-D HPlcmt-south ZN NECB System 3 PSZ Occ Sch Wednesday, !- Wednesday Schedule:Day Name\n   *************   1848   Sp-Corner_Class_1_Pod_1_ZN_1_FLR_1 Sys-3 Flr-1 Sch-D HPlcmt-south ZN NECB System 3 PSZ Occ Sch Thursday, !- Thursday Schedule:Day Name\n   *************   1849   Sp-Corner_Class_1_Pod_1_ZN_1_FLR_1 Sys-3 Flr-1 Sch-D HPlcmt-south ZN NECB System 3 PSZ Occ Sch Friday, !- Friday Schedule:Day Name\n   *************   1850   Sp-Corner_Class_1_Pod_1_ZN_1_FLR_1 Sys-3 Flr-1 Sch-D HPlcmt-south ZN NECB System 3 PSZ Occ Sch Saturday, !- Saturday Schedule:Day Name\n   ** Warning ** IP: IDF line~1850 Alpha Argument length exceeds maximum, will be truncated=  Sp-Corner_Class_1_Pod_1_ZN_1_FLR_1 Sys-3 Flr-1 Sch-D HPlcmt-south ZN NECB System 3 PSZ Occ Sch Saturda\n   **   ~~~   ** Will be processed as Alpha=SP-CORNER_CLASS_1_POD_1_ZN_1_FLR_1 SYS-3 FLR-1 SCH-D HPLCMT-SOUTH ZN NECB SYSTEM 3 PSZ OCC SCH SATURDAY\n   ************* IDF Context for following error/warning message:\n   ************* Note -- lines truncated at 300 characters, if necessary...\n   *************   1842 Schedule:Week:Daily,\n   ************* indicated Name=Schedule:Week:Daily {2a9596ad-49c8-46f2-ac2d-9e0dcb74e763}\n   ************* Only last 9 lines before error line shown.....\n   *************   1843   Schedule:Week:Daily {2a9596ad-49c8-46f2-ac2d-9e0dcb74e763}, !- Name\n   *************   1844   Sp-Corner_Class_1_Pod_1_ZN_1_FLR_1 Sys-3 Flr-1 Sch-D HPlcmt-south ZN NECB System 3 PSZ Occ Sch Sunday, !- Sunday Schedule:Day Name\n   *************   1845   Sp-Corner_Class_1_Pod_1_ZN_1_FLR_1 Sys-3 Flr-1 Sch-D HPlcmt-south ZN NECB System 3 PSZ Occ Sch Monday, !- Monday Schedule:Day Name\n   *************   1846   Sp-Corner_Class_1_Pod_1_ZN_1_FLR_1 Sys-3 Flr-1 Sch-D HPlcmt-south ZN NECB System 3 PSZ Occ Sch Tuesday, !- Tuesday Schedule:Day Name\n   *************   1847   Sp-Corner_Class_1_Pod_1_ZN_1_FLR_1 Sys-3 Flr-1 Sch-D HPlcmt-south ZN NECB System 3 PSZ Occ Sch Wednesday, !- Wednesday Schedule:Day Name\n   *************   1848   Sp-Corner_Class_1_Pod_1_ZN_1_FLR_1 Sys-3 Flr-1 Sch-D HPlcmt-south ZN NECB System 3 PSZ Occ Sch Thursday, !- Thursday Schedule:Day Name\n   *************   1849   Sp-Corner_Class_1_Pod_1_ZN_1_FLR_1 Sys-3 Flr-1 Sch-D HPlcmt-south ZN NECB System 3 PSZ Occ Sch Friday, !- Friday Schedule:Day Name\n   *************   1850   Sp-Corner_Class_1_Pod_1_ZN_1_FLR_1 Sys-3 Flr-1 Sch-D HPlcmt-south ZN NECB System 3 PSZ Occ Sch Saturday, !- Saturday Schedule:Day Name\n   *************   1851   Sp-Corner_Class_1_Pod_1_ZN_1_FLR_1 Sys-3 Flr-1 Sch-D HPlcmt-south ZN NECB System 3 PSZ Occ Sch Default, !- Holiday Schedule:Day Name\n   ** Warning ** IP: IDF line~1851 Alpha Argument length exceeds maximum, will be truncated=  Sp-Corner_Class_1_Pod_1_ZN_1_FLR_1 Sys-3 Flr-1 Sch-D HPlcmt-south ZN NECB System 3 PSZ Occ Sch Defaul\n   **   ~~~   ** Will be processed as Alpha=SP-CORNER_CLASS_1_POD_1_ZN_1_FLR_1 SYS-3 FLR-1 SCH-D HPLCMT-SOUTH ZN NECB SYSTEM 3 PSZ OCC SCH DEFAULT\n   ************* IDF Context for following error/warning message:\n   ************* Note -- lines truncated at 300 characters, if necessary...\n   *************   1842 Schedule:Week:Daily,\n   ************* indicated Name=Schedule:Week:Daily {2a9596ad-49c8-46f2-ac2d-9e0dcb74e763}\n   ************* Only last 10 lines before error line shown.....\n   *************   1843   Schedule:Week:Daily {2a9596ad-49c8-46f2-ac2d-9e0dcb74e763}, !- Name\n   *************   1844   Sp-Corner_Class_1_Pod_1_ZN_1_FLR_1 Sys-3 Flr-1 Sch-D HPlcmt-south ZN NECB System 3 PSZ Occ Sch Sunday, !- Sunday Schedule:Day Name\n   *************   1845   Sp-Corner_Class_1_Pod_1_ZN_1_FLR_1 Sys-3 Flr-1 Sch-D HPlcmt-south ZN NECB System 3 PSZ Occ Sch Monday, !- Monday Schedule:Day Name\n   *************   1846   Sp-Corner_Class_1_Pod_1_ZN_1_FLR_1 Sys-3 Flr-1 Sch-D HPlcmt-south ZN NECB System 3 PSZ Occ Sch Tuesday, !- Tuesday Schedule:Day Name\n   *************   1847   Sp-Corner_Class_1_Pod_1_ZN_1_FLR_1 Sys-3 Flr-1 Sch-D HPlcmt-south ZN NECB System 3 PSZ Occ Sch Wednesday, !- Wednesday Schedule:Day Name\n   *************   1848   Sp-Corner_Class_1_Pod_1_ZN_1_FLR_1 Sys-3 Flr-1 Sch-D HPlcmt-south ZN NECB System 3 PSZ Occ Sch Thursday, !- Thursday Schedule:Day Name\n   *************   1849   Sp-Corner_Class_1_Pod_1_ZN_1_FLR_1 Sys-3 Flr-1 Sch-D HPlcmt-south ZN NECB System 3 PSZ Occ Sch Friday, !- Friday Schedule:Day Name\n   *************   1850   Sp-Corner_Class_1_Pod_1_ZN_1_FLR_1 Sys-3 Flr-1 Sch-D HPlcmt-south ZN NECB System 3 PSZ Occ Sch Saturday, !- Saturday Schedule:Day Name\n   *************   1851   Sp-Corner_Class_1_Pod_1_ZN_1_FLR_1 Sys-3 Flr-1 Sch-D HPlcmt-south ZN NECB System 3 PSZ Occ Sch Default, !- Holiday Schedule:Day Name\n   *************   1852   Sp-Corner_Class_1_Pod_1_ZN_1_FLR_1 Sys-3 Flr-1 Sch-D HPlcmt-south ZN NECB System 3 PSZ Occ Sch Summer Design Day, !- SummerDesignDay Schedule:Day Name\n   ** Warning ** IP: IDF line~1852 Alpha Argument length exceeds maximum, will be truncated=  Sp-Corner_Class_1_Pod_1_ZN_1_FLR_1 Sys-3 Flr-1 Sch-D HPlcmt-south ZN NECB System 3 PSZ Occ Sch Summer Design Da\n   **   ~~~   ** Will be processed as Alpha=SP-CORNER_CLASS_1_POD_1_ZN_1_FLR_1 SYS-3 FLR-1 SCH-D HPLCMT-SOUTH ZN NECB SYSTEM 3 PSZ OCC SCH SUMMER DESIGN DAY\n   ************* IDF Context for following error/warning message:\n   ************* Note -- lines truncated at 300 characters, if necessary...\n   *************   1842 Schedule:Week:Daily,\n   ************* indicated Name=Schedule:Week:Daily {2a9596ad-49c8-46f2-ac2d-9e0dcb74e763}\n   ************* Only last 10 lines before error line shown.....\n   *************   1844   Sp-Corner_Class_1_Pod_1_ZN_1_FLR_1 Sys-3 Flr-1 Sch-D HPlcmt-south ZN NECB System 3 PSZ Occ Sch Sunday, !- Sunday Schedule:Day Name\n   *************   1845   Sp-Corner_Class_1_Pod_1_ZN_1_FLR_1 Sys-3 Flr-1 Sch-D HPlcmt-south ZN NECB System 3 PSZ Occ Sch Monday, !- Monday Schedule:Day Name\n   *************   1846   Sp-Corner_Class_1_Pod_1_ZN_1_FLR_1 Sys-3 Flr-1 Sch-D HPlcmt-south ZN NECB System 3 PSZ Occ Sch Tuesday, !- Tuesday Schedule:Day Name\n   *************   1847   Sp-Corner_Class_1_Pod_1_ZN_1_FLR_1 Sys-3 Flr-1 Sch-D HPlcmt-south ZN NECB System 3 PSZ Occ Sch Wednesday, !- Wednesday Schedule:Day Name\n   *************   1848   Sp-Corner_Class_1_Pod_1_ZN_1_FLR_1 Sys-3 Flr-1 Sch-D HPlcmt-south ZN NECB System 3 PSZ Occ Sch Thursday, !- Thursday Schedule:Day Name\n   *************   1849   Sp-Corner_Class_1_Pod_1_ZN_1_FLR_1 Sys-3 Flr-1 Sch-D HPlcmt-south ZN NECB System 3 PSZ Occ Sch Friday, !- Friday Schedule:Day Name\n   *************   1850   Sp-Corner_Class_1_Pod_1_ZN_1_FLR_1 Sys-3 Flr-1 Sch-D HPlcmt-south ZN NECB System 3 PSZ Occ Sch Saturday, !- Saturday Schedule:Day Name\n   *************   1851   Sp-Corner_Class_1_Pod_1_ZN_1_FLR_1 Sys-3 Flr-1 Sch-D HPlcmt-south ZN NECB System 3 PSZ Occ Sch Default, !- Holiday Schedule:Day Name\n   *************   1852   Sp-Corner_Class_1_Pod_1_ZN_1_FLR_1 Sys-3 Flr-1 Sch-D HPlcmt-south ZN NECB System 3 PSZ Occ Sch Summer Design Day, !- SummerDesignDay Schedule:Day Name\n   *************   1853   Sp-Corner_Class_1_Pod_1_ZN_1_FLR_1 Sys-3 Flr-1 Sch-D HPlcmt-south ZN NECB System 3 PSZ Occ Sch Winter Design Day, !- WinterDesignDay Schedule:Day Name\n   ** Warning ** IP: IDF line~1853 Alpha Argument length exceeds maximum, will be truncated=  Sp-Corner_Class_1_Pod_1_ZN_1_FLR_1 Sys-3 Flr-1 Sch-D HPlcmt-south ZN NECB System 3 PSZ Occ Sch Winter Design Da\n   **   ~~~   ** Will be processed as Alpha=SP-CORNER_CLASS_1_POD_1_ZN_1_FLR_1 SYS-3 FLR-1 SCH-D HPLCMT-SOUTH ZN NECB SYSTEM 3 PSZ OCC SCH WINTER DESIGN DAY\n   ************* IDF Context for following error/warning message:\n   ************* Note -- lines truncated at 300 characters, if necessary...\n   *************   1842 Schedule:Week:Daily,\n   ************* indicated Name=Schedule:Week:Daily {2a9596ad-49c8-46f2-ac2d-9e0dcb74e763}\n   ************* Only last 10 lines before error line shown.....\n   *************   1845   Sp-Corner_Class_1_Pod_1_ZN_1_FLR_1 Sys-3 Flr-1 Sch-D HPlcmt-south ZN NECB System 3 PSZ Occ Sch Monday, !- Monday Schedule:Day Name\n   *************   1846   Sp-Corner_Class_1_Pod_1_ZN_1_FLR_1 Sys-3 Flr-1 Sch-D HPlcmt-south ZN NECB System 3 PSZ Occ Sch Tuesday, !- Tuesday Schedule:Day Name\n   *************   1847   Sp-Corner_Class_1_Pod_1_ZN_1_FLR_1 Sys-3 Flr-1 Sch-D HPlcmt-south ZN NECB System 3 PSZ Occ Sch Wednesday, !- Wednesday Schedule:Day Name\n   *************   1848   Sp-Corner_Class_1_Pod_1_ZN_1_FLR_1 Sys-3 Flr-1 Sch-D HPlcmt-south ZN NECB System 3 PSZ Occ Sch Thursday, !- Thursday Schedule:Day Name\n   *************   1849   Sp-Corner_Class_1_Pod_1_ZN_1_FLR_1 Sys-3 Flr-1 Sch-D HPlcmt-south ZN NECB System 3 PSZ Occ Sch Friday, !- Friday Schedule:Day Name\n   *************   1850   Sp-Corner_Class_1_Pod_1_ZN_1_FLR_1 Sys-3 Flr-1 Sch-D HPlcmt-south ZN NECB System 3 PSZ Occ Sch Saturday, !- Saturday Schedule:Day Name\n   *************   1851   Sp-Corner_Class_1_Pod_1_ZN_1_FLR_1 Sys-3 Flr-1 Sch-D HPlcmt-south ZN NECB System 3 PSZ Occ Sch Default, !- Holiday Schedule:Day Name\n   *************   1852   Sp-Corner_Class_1_Pod_1_ZN_1_FLR_1 Sys-3 Flr-1 Sch-D HPlcmt-south ZN NECB System 3 PSZ Occ Sch Summer Design Day, !- SummerDesignDay Schedule:Day Name\n   *************   1853   Sp-Corner_Class_1_Pod_1_ZN_1_FLR_1 Sys-3 Flr-1 Sch-D HPlcmt-south ZN NECB System 3 PSZ Occ Sch Winter Design Day, !- WinterDesignDay Schedule:Day Name\n   *************   1854   Sp-Corner_Class_1_Pod_1_ZN_1_FLR_1 Sys-3 Flr-1 Sch-D HPlcmt-south ZN NECB System 3 PSZ Occ Sch Default, !- CustomDay1 Schedule:Day Name\n   ** Warning ** IP: IDF line~1854 Alpha Argument length exceeds maximum, will be truncated=  Sp-Corner_Class_1_Pod_1_ZN_1_FLR_1 Sys-3 Flr-1 Sch-D HPlcmt-south ZN NECB System 3 PSZ Occ Sch Defaul\n   **   ~~~   ** Will be processed as Alpha=SP-CORNER_CLASS_1_POD_1_ZN_1_FLR_1 SYS-3 FLR-1 SCH-D HPLCMT-SOUTH ZN NECB SYSTEM 3 PSZ OCC SCH DEFAULT\n   ************* IDF Context for following error/warning message:\n   ************* Note -- lines truncated at 300 characters, if necessary...\n   *************   1842 Schedule:Week:Daily,\n   ************* indicated Name=Schedule:Week:Daily {2a9596ad-49c8-46f2-ac2d-9e0dcb74e763}\n   ************* Only last 10 lines before error line shown.....\n   *************   1846   Sp-Corner_Class_1_Pod_1_ZN_1_FLR_1 Sys-3 Flr-1 Sch-D HPlcmt-south ZN NECB System 3 PSZ Occ Sch Tuesday, !- Tuesday Schedule:Day Name\n   *************   1847   Sp-Corner_Class_1_Pod_1_ZN_1_FLR_1 Sys-3 Flr-1 Sch-D HPlcmt-south ZN NECB System 3 PSZ Occ Sch Wednesday, !- Wednesday Schedule:Day Name\n   *************   1848   Sp-Corner_Class_1_Pod_1_ZN_1_FLR_1 Sys-3 Flr-1 Sch-D HPlcmt-south ZN NECB System 3 PSZ Occ Sch Thursday, !- Thursday Schedule:Day Name\n   *************   1849   Sp-Corner_Class_1_Pod_1_ZN_1_FLR_1 Sys-3 Flr-1 Sch-D HPlcmt-south ZN NECB System 3 PSZ Occ Sch Friday, !- Friday Schedule:Day Name\n   *************   1850   Sp-Corner_Class_1_Pod_1_ZN_1_FLR_1 Sys-3 Flr-1 Sch-D HPlcmt-south ZN NECB System 3 PSZ Occ Sch Saturday, !- Saturday Schedule:Day Name\n   *************   1851   Sp-Corner_Class_1_Pod_1_ZN_1_FLR_1 Sys-3 Flr-1 Sch-D HPlcmt-south ZN NECB System 3 PSZ Occ Sch Default, !- Holiday Schedule:Day Name\n   *************   1852   Sp-Corner_Class_1_Pod_1_ZN_1_FLR_1 Sys-3 Flr-1 Sch-D HPlcmt-south ZN NECB System 3 PSZ Occ Sch Summer Design Day, !- SummerDesignDay Schedule:Day Name\n   *************   1853   Sp-Corner_Class_1_Pod_1_ZN_1_FLR_1 Sys-3 Flr-1 Sch-D HPlcmt-south ZN NECB System 3 PSZ Occ Sch Winter Design Day, !- WinterDesignDay Schedule:Day Name\n   *************   1854   Sp-Corner_Class_1_Pod_1_ZN_1_FLR_1 Sys-3 Flr-1 Sch-D HPlcmt-south ZN NECB System 3 PSZ Occ Sch Default, !- CustomDay1 Schedule:Day Name\n   *************   1855   Sp-Corner_Class_1_Pod_1_ZN_1_FLR_1 Sys-3 Flr-1 Sch-D HPlcmt-south ZN NECB System 3 PSZ Occ Sch Default; !- CustomDay2 Schedule:Day Name\n   ** Warning ** IP: IDF line~1855 Alpha Argument length exceeds maximum, will be truncated=  Sp-Corner_Class_1_Pod_1_ZN_1_FLR_1 Sys-3 Flr-1 Sch-D HPlcmt-south ZN NECB System 3 PSZ Occ Sch Defaul\n   **   ~~~   ** Will be processed as Alpha=SP-CORNER_CLASS_1_POD_1_ZN_1_FLR_1 SYS-3 FLR-1 SCH-D HPLCMT-SOUTH ZN NECB SYSTEM 3 PSZ OCC SCH DEFAULT\n   ************* IDF Context for following error/warning message:\n   ************* Note -- lines truncated at 300 characters, if necessary...\n   *************   1866 Schedule:Day:Interval,\n   ************* indicated Name=Sp-Corner_Class_1_Pod_1_ZN_1_FLR_1 Sys-3 Flr-1 Sch-D HPlcmt-south ZN NECB System 3 PSZ Occ Sch Default\n   ************* Only last 1 lines before error line shown.....\n   *************   1867   Sp-Corner_Class_1_Pod_1_ZN_1_FLR_1 Sys-3 Flr-1 Sch-D HPlcmt-south ZN NECB System 3 PSZ Occ Sch Default, !- Name\n   ** Warning ** IP: IDF line~1867 Alpha Argument length exceeds maximum, will be truncated=  Sp-Corner_Class_1_Pod_1_ZN_1_FLR_1 Sys-3 Flr-1 Sch-D HPlcmt-south ZN NECB System 3 PSZ Occ Sch Defaul\n   **   ~~~   ** Will be processed as Alpha=SP-CORNER_CLASS_1_POD_1_ZN_1_FLR_1 SYS-3 FLR-1 SCH-D HPLCMT-SOUTH ZN NECB SYSTEM 3 PSZ OCC SCH DEFAULT\n   ************* IDF Context for following error/warning message:\n   ************* Note -- lines truncated at 300 characters, if necessary...\n   *************   1873 Schedule:Day:Interval,\n   ************* indicated Name=Sp-Corner_Class_1_Pod_1_ZN_1_FLR_1 Sys-3 Flr-1 Sch-D HPlcmt-south ZN NECB System 3 PSZ Occ Sch Summer Design Day\n   ************* Only last 1 lines before error line shown.....\n   *************   1874   Sp-Corner_Class_1_Pod_1_ZN_1_FLR_1 Sys-3 Flr-1 Sch-D HPlcmt-south ZN NECB System 3 PSZ Occ Sch Summer Design Day, !- Name\n   ** Warning ** IP: IDF line~1874 Alpha Argument length exceeds maximum, will be truncated=  Sp-Corner_Class_1_Pod_1_ZN_1_FLR_1 Sys-3 Flr-1 Sch-D HPlcmt-south ZN NECB System 3 PSZ Occ Sch Summer Design Da\n   **   ~~~   ** Will be processed as Alpha=SP-CORNER_CLASS_1_POD_1_ZN_1_FLR_1 SYS-3 FLR-1 SCH-D HPLCMT-SOUTH ZN NECB SYSTEM 3 PSZ OCC SCH SUMMER DESIGN DAY\n   ************* IDF Context for following error/warning message:\n   ************* Note -- lines truncated at 300 characters, if necessary...\n   *************   1880 Schedule:Day:Interval,\n   ************* indicated Name=Sp-Corner_Class_1_Pod_1_ZN_1_FLR_1 Sys-3 Flr-1 Sch-D HPlcmt-south ZN NECB System 3 PSZ Occ Sch Winter Design Day\n   ************* Only last 1 lines before error line shown.....\n   *************   1881   Sp-Corner_Class_1_Pod_1_ZN_1_FLR_1 Sys-3 Flr-1 Sch-D HPlcmt-south ZN NECB System 3 PSZ Occ Sch Winter Design Day, !- Name\n   ** Warning ** IP: IDF line~1881 Alpha Argument length exceeds maximum, will be truncated=  Sp-Corner_Class_1_Pod_1_ZN_1_FLR_1 Sys-3 Flr-1 Sch-D HPlcmt-south ZN NECB System 3 PSZ Occ Sch Winter Design Da\n   **   ~~~   ** Will be processed as Alpha=SP-CORNER_CLASS_1_POD_1_ZN_1_FLR_1 SYS-3 FLR-1 SCH-D HPLCMT-SOUTH ZN NECB SYSTEM 3 PSZ OCC SCH WINTER DESIGN DAY\n   ************* IDF Context for following error/warning message:\n   ************* Note -- lines truncated at 300 characters, if necessary...\n   *************   2149 Schedule:Day:Interval,\n   ************* indicated Name=Sp-Corner_Class_1_Pod_2_ZN_1_FLR_1 Sys-3 Flr-1 Sch-D HPlcmt-south ZN NECB System 3 PSZ Occ Sch Sunday\n   ************* Only last 1 lines before error line shown.....\n   *************   2150   Sp-Corner_Class_1_Pod_2_ZN_1_FLR_1 Sys-3 Flr-1 Sch-D HPlcmt-south ZN NECB System 3 PSZ Occ Sch Sunday, !- Name\n   ** Warning ** IP: IDF line~2150 Alpha Argument length exceeds maximum, will be truncated=  Sp-Corner_Class_1_Pod_2_ZN_1_FLR_1 Sys-3 Flr-1 Sch-D HPlcmt-south ZN NECB System 3 PSZ Occ Sch Sunda\n   **   ~~~   ** Will be processed as Alpha=SP-CORNER_CLASS_1_POD_2_ZN_1_FLR_1 SYS-3 FLR-1 SCH-D HPLCMT-SOUTH ZN NECB SYSTEM 3 PSZ OCC SCH SUNDAY\n   ************* IDF Context for following error/warning message:\n   ************* Note -- lines truncated at 300 characters, if necessary...\n   *************   2156 Schedule:Day:Interval,\n   ************* indicated Name=Sp-Corner_Class_1_Pod_2_ZN_1_FLR_1 Sys-3 Flr-1 Sch-D HPlcmt-south ZN NECB System 3 PSZ Occ Sch Monday\n   ************* Only last 1 lines before error line shown.....\n   *************   2157   Sp-Corner_Class_1_Pod_2_ZN_1_FLR_1 Sys-3 Flr-1 Sch-D HPlcmt-south ZN NECB System 3 PSZ Occ Sch Monday, !- Name\n   ** Warning ** IP: IDF line~2157 Alpha Argument length exceeds maximum, will be truncated=  Sp-Corner_Class_1_Pod_2_ZN_1_FLR_1 Sys-3 Flr-1 Sch-D HPlcmt-south ZN NECB System 3 PSZ Occ Sch Monda\n   **   ~~~   ** Will be processed as Alpha=SP-CORNER_CLASS_1_POD_2_ZN_1_FLR_1 SYS-3 FLR-1 SCH-D HPLCMT-SOUTH ZN NECB SYSTEM 3 PSZ OCC SCH MONDAY\n   ************* IDF Context for following error/warning message:\n   ************* Note -- lines truncated at 300 characters, if necessary...\n   *************   2171 Schedule:Day:Interval,\n   ************* indicated Name=Sp-Corner_Class_1_Pod_2_ZN_1_FLR_1 Sys-3 Flr-1 Sch-D HPlcmt-south ZN NECB System 3 PSZ Occ Sch Tuesday\n   ************* Only last 1 lines before error line shown.....\n   *************   2172   Sp-Corner_Class_1_Pod_2_ZN_1_FLR_1 Sys-3 Flr-1 Sch-D HPlcmt-south ZN NECB System 3 PSZ Occ Sch Tuesday, !- Name\n   ** Warning ** IP: IDF line~2172 Alpha Argument length exceeds maximum, will be truncated=  Sp-Corner_Class_1_Pod_2_ZN_1_FLR_1 Sys-3 Flr-1 Sch-D HPlcmt-south ZN NECB System 3 PSZ Occ Sch Tuesda\n   **   ~~~   ** Will be processed as Alpha=SP-CORNER_CLASS_1_POD_2_ZN_1_FLR_1 SYS-3 FLR-1 SCH-D HPLCMT-SOUTH ZN NECB SYSTEM 3 PSZ OCC SCH TUESDAY\n   ************* IDF Context for following error/warning message:\n   ************* Note -- lines truncated at 300 characters, if necessary...\n   *************   2186 Schedule:Day:Interval,\n   ************* indicated Name=Sp-Corner_Class_1_Pod_2_ZN_1_FLR_1 Sys-3 Flr-1 Sch-D HPlcmt-south ZN NECB System 3 PSZ Occ Sch Wednesday\n   ************* Only last 1 lines before error line shown.....\n   *************   2187   Sp-Corner_Class_1_Pod_2_ZN_1_FLR_1 Sys-3 Flr-1 Sch-D HPlcmt-south ZN NECB System 3 PSZ Occ Sch Wednesday, !- Name\n   ** Warning ** IP: IDF line~2187 Alpha Argument length exceeds maximum, will be truncated=  Sp-Corner_Class_1_Pod_2_ZN_1_FLR_1 Sys-3 Flr-1 Sch-D HPlcmt-south ZN NECB System 3 PSZ Occ Sch Wednesda\n   **   ~~~   ** Will be processed as Alpha=SP-CORNER_CLASS_1_POD_2_ZN_1_FLR_1 SYS-3 FLR-1 SCH-D HPLCMT-SOUTH ZN NECB SYSTEM 3 PSZ OCC SCH WEDNESDAY\n   ************* IDF Context for following error/warning message:\n   ************* Note -- lines truncated at 300 characters, if necessary...\n   *************   2201 Schedule:Day:Interval,\n   ************* indicated Name=Sp-Corner_Class_1_Pod_2_ZN_1_FLR_1 Sys-3 Flr-1 Sch-D HPlcmt-south ZN NECB System 3 PSZ Occ Sch Thursday\n   ************* Only last 1 lines before error line shown.....\n   *************   2202   Sp-Corner_Class_1_Pod_2_ZN_1_FLR_1 Sys-3 Flr-1 Sch-D HPlcmt-south ZN NECB System 3 PSZ Occ Sch Thursday, !- Name\n   ** Warning ** IP: IDF line~2202 Alpha Argument length exceeds maximum, will be truncated=  Sp-Corner_Class_1_Pod_2_ZN_1_FLR_1 Sys-3 Flr-1 Sch-D HPlcmt-south ZN NECB System 3 PSZ Occ Sch Thursda\n   **   ~~~   ** Will be processed as Alpha=SP-CORNER_CLASS_1_POD_2_ZN_1_FLR_1 SYS-3 FLR-1 SCH-D HPLCMT-SOUTH ZN NECB SYSTEM 3 PSZ OCC SCH THURSDAY\n   ************* IDF Context for following error/warning message:\n   ************* Note -- lines truncated at 300 characters, if necessary...\n   *************   2216 Schedule:Day:Interval,\n   ************* indicated Name=Sp-Corner_Class_1_Pod_2_ZN_1_FLR_1 Sys-3 Flr-1 Sch-D HPlcmt-south ZN NECB System 3 PSZ Occ Sch Friday\n   ************* Only last 1 lines before error line shown.....\n   *************   2217   Sp-Corner_Class_1_Pod_2_ZN_1_FLR_1 Sys-3 Flr-1 Sch-D HPlcmt-south ZN NECB System 3 PSZ Occ Sch Friday, !- Name\n   ** Warning ** IP: IDF line~2217 Alpha Argument length exceeds maximum, will be truncated=  Sp-Corner_Class_1_Pod_2_ZN_1_FLR_1 Sys-3 Flr-1 Sch-D HPlcmt-south ZN NECB System 3 PSZ Occ Sch Frida\n   **   ~~~   ** Will be processed as Alpha=SP-CORNER_CLASS_1_POD_2_ZN_1_FLR_1 SYS-3 FLR-1 SCH-D HPLCMT-SOUTH ZN NECB SYSTEM 3 PSZ OCC SCH FRIDAY\n   ************* IDF Context for following error/warning message:\n   ************* Note -- lines truncated at 300 characters, if necessary...\n   *************   2231 Schedule:Day:Interval,\n   ************* indicated Name=Sp-Corner_Class_1_Pod_2_ZN_1_FLR_1 Sys-3 Flr-1 Sch-D HPlcmt-south ZN NECB System 3 PSZ Occ Sch Saturday\n   ************* Only last 1 lines before error line shown.....\n   *************   2232   Sp-Corner_Class_1_Pod_2_ZN_1_FLR_1 Sys-3 Flr-1 Sch-D HPlcmt-south ZN NECB System 3 PSZ Occ Sch Saturday, !- Name\n   ** Warning ** IP: IDF line~2232 Alpha Argument length exceeds maximum, will be truncated=  Sp-Corner_Class_1_Pod_2_ZN_1_FLR_1 Sys-3 Flr-1 Sch-D HPlcmt-south ZN NECB System 3 PSZ Occ Sch Saturda\n   **   ~~~   ** Will be processed as Alpha=SP-CORNER_CLASS_1_POD_2_ZN_1_FLR_1 SYS-3 FLR-1 SCH-D HPLCMT-SOUTH ZN NECB SYSTEM 3 PSZ OCC SCH SATURDAY\n   ************* IDF Context for following error/warning message:\n   ************* Note -- lines truncated at 300 characters, if necessary...\n   *************   2238 Schedule:Week:Daily,\n   ************* indicated Name=Schedule:Week:Daily {d0380d08-2bc6-4849-8711-3f124c3647a4}\n   ************* Only last 2 lines before error line shown.....\n   *************   2239   Schedule:Week:Daily {d0380d08-2bc6-4849-8711-3f124c3647a4}, !- Name\n   *************   2240   Sp-Corner_Class_1_Pod_2_ZN_1_FLR_1 Sys-3 Flr-1 Sch-D HPlcmt-south ZN NECB System 3 PSZ Occ Sch Sunday, !- Sunday Schedule:Day Name\n   ** Warning ** IP: IDF line~2240 Alpha Argument length exceeds maximum, will be truncated=  Sp-Corner_Class_1_Pod_2_ZN_1_FLR_1 Sys-3 Flr-1 Sch-D HPlcmt-south ZN NECB System 3 PSZ Occ Sch Sunda\n   **   ~~~   ** Will be processed as Alpha=SP-CORNER_CLASS_1_POD_2_ZN_1_FLR_1 SYS-3 FLR-1 SCH-D HPLCMT-SOUTH ZN NECB SYSTEM 3 PSZ OCC SCH SUNDAY\n   ************* IDF Context for following error/warning message:\n   ************* Note -- lines truncated at 300 characters, if necessary...\n   *************   2238 Schedule:Week:Daily,\n   ************* indicated Name=Schedule:Week:Daily {d0380d08-2bc6-4849-8711-3f124c3647a4}\n   ************* Only last 3 lines before error line shown.....\n   *************   2239   Schedule:Week:Daily {d0380d08-2bc6-4849-8711-3f124c3647a4}, !- Name\n   *************   2240   Sp-Corner_Class_1_Pod_2_ZN_1_FLR_1 Sys-3 Flr-1 Sch-D HPlcmt-south ZN NECB System 3 PSZ Occ Sch Sunday, !- Sunday Schedule:Day Name\n   *************   2241   Sp-Corner_Class_1_Pod_2_ZN_1_FLR_1 Sys-3 Flr-1 Sch-D HPlcmt-south ZN NECB System 3 PSZ Occ Sch Monday, !- Monday Schedule:Day Name\n   ** Warning ** IP: IDF line~2241 Alpha Argument length exceeds maximum, will be truncated=  Sp-Corner_Class_1_Pod_2_ZN_1_FLR_1 Sys-3 Flr-1 Sch-D HPlcmt-south ZN NECB System 3 PSZ Occ Sch Monda\n   **   ~~~   ** Will be processed as Alpha=SP-CORNER_CLASS_1_POD_2_ZN_1_FLR_1 SYS-3 FLR-1 SCH-D HPLCMT-SOUTH ZN NECB SYSTEM 3 PSZ OCC SCH MONDAY\n   ************* IDF Context for following error/warning message:\n   ************* Note -- lines truncated at 300 characters, if necessary...\n   *************   2238 Schedule:Week:Daily,\n   ************* indicated Name=Schedule:Week:Daily {d0380d08-2bc6-4849-8711-3f124c3647a4}\n   ************* Only last 4 lines before error line shown.....\n   *************   2239   Schedule:Week:Daily {d0380d08-2bc6-4849-8711-3f124c3647a4}, !- Name\n   *************   2240   Sp-Corner_Class_1_Pod_2_ZN_1_FLR_1 Sys-3 Flr-1 Sch-D HPlcmt-south ZN NECB System 3 PSZ Occ Sch Sunday, !- Sunday Schedule:Day Name\n   *************   2241   Sp-Corner_Class_1_Pod_2_ZN_1_FLR_1 Sys-3 Flr-1 Sch-D HPlcmt-south ZN NECB System 3 PSZ Occ Sch Monday, !- Monday Schedule:Day Name\n   *************   2242   Sp-Corner_Class_1_Pod_2_ZN_1_FLR_1 Sys-3 Flr-1 Sch-D HPlcmt-south ZN NECB System 3 PSZ Occ Sch Tuesday, !- Tuesday Schedule:Day Name\n   ** Warning ** IP: IDF line~2242 Alpha Argument length exceeds maximum, will be truncated=  Sp-Corner_Class_1_Pod_2_ZN_1_FLR_1 Sys-3 Flr-1 Sch-D HPlcmt-south ZN NECB System 3 PSZ Occ Sch Tuesda\n   **   ~~~   ** Will be processed as Alpha=SP-CORNER_CLASS_1_POD_2_ZN_1_FLR_1 SYS-3 FLR-1 SCH-D HPLCMT-SOUTH ZN NECB SYSTEM 3 PSZ OCC SCH TUESDAY\n   ************* IDF Context for following error/warning message:\n   ************* Note -- lines truncated at 300 characters, if necessary...\n   *************   2238 Schedule:Week:Daily,\n   ************* indicated Name=Schedule:Week:Daily {d0380d08-2bc6-4849-8711-3f124c3647a4}\n   ************* Only last 5 lines before error line shown.....\n   *************   2239   Schedule:Week:Daily {d0380d08-2bc6-4849-8711-3f124c3647a4}, !- Name\n   *************   2240   Sp-Corner_Class_1_Pod_2_ZN_1_FLR_1 Sys-3 Flr-1 Sch-D HPlcmt-south ZN NECB System 3 PSZ Occ Sch Sunday, !- Sunday Schedule:Day Name\n   *************   2241   Sp-Corner_Class_1_Pod_2_ZN_1_FLR_1 Sys-3 Flr-1 Sch-D HPlcmt-south ZN NECB System 3 PSZ Occ Sch Monday, !- Monday Schedule:Day Name\n   *************   2242   Sp-Corner_Class_1_Pod_2_ZN_1_FLR_1 Sys-3 Flr-1 Sch-D HPlcmt-south ZN NECB System 3 PSZ Occ Sch Tuesday, !- Tuesday Schedule:Day Name\n   *************   2243   Sp-Corner_Class_1_Pod_2_ZN_1_FLR_1 Sys-3 Flr-1 Sch-D HPlcmt-south ZN NECB System 3 PSZ Occ Sch Wednesday, !- Wednesday Schedule:Day Name\n   ** Warning ** IP: IDF line~2243 Alpha Argument length exceeds maximum, will be truncated=  Sp-Corner_Class_1_Pod_2_ZN_1_FLR_1 Sys-3 Flr-1 Sch-D HPlcmt-south ZN NECB System 3 PSZ Occ Sch Wednesda\n   **   ~~~   ** Will be processed as Alpha=SP-CORNER_CLASS_1_POD_2_ZN_1_FLR_1 SYS-3 FLR-1 SCH-D HPLCMT-SOUTH ZN NECB SYSTEM 3 PSZ OCC SCH WEDNESDAY\n   ************* IDF Context for following error/warning message:\n   ************* Note -- lines truncated at 300 characters, if necessary...\n   *************   2238 Schedule:Week:Daily,\n   ************* indicated Name=Schedule:Week:Daily {d0380d08-2bc6-4849-8711-3f124c3647a4}\n   ************* Only last 6 lines before error line shown.....\n   *************   2239   Schedule:Week:Daily {d0380d08-2bc6-4849-8711-3f124c3647a4}, !- Name\n   *************   2240   Sp-Corner_Class_1_Pod_2_ZN_1_FLR_1 Sys-3 Flr-1 Sch-D HPlcmt-south ZN NECB System 3 PSZ Occ Sch Sunday, !- Sunday Schedule:Day Name\n   *************   2241   Sp-Corner_Class_1_Pod_2_ZN_1_FLR_1 Sys-3 Flr-1 Sch-D HPlcmt-south ZN NECB System 3 PSZ Occ Sch Monday, !- Monday Schedule:Day Name\n   *************   2242   Sp-Corner_Class_1_Pod_2_ZN_1_FLR_1 Sys-3 Flr-1 Sch-D HPlcmt-south ZN NECB System 3 PSZ Occ Sch Tuesday, !- Tuesday Schedule:Day Name\n   *************   2243   Sp-Corner_Class_1_Pod_2_ZN_1_FLR_1 Sys-3 Flr-1 Sch-D HPlcmt-south ZN NECB System 3 PSZ Occ Sch Wednesday, !- Wednesday Schedule:Day Name\n   *************   2244   Sp-Corner_Class_1_Pod_2_ZN_1_FLR_1 Sys-3 Flr-1 Sch-D HPlcmt-south ZN NECB System 3 PSZ Occ Sch Thursday, !- Thursday Schedule:Day Name\n   ** Warning ** IP: IDF line~2244 Alpha Argument length exceeds maximum, will be truncated=  Sp-Corner_Class_1_Pod_2_ZN_1_FLR_1 Sys-3 Flr-1 Sch-D HPlcmt-south ZN NECB System 3 PSZ Occ Sch Thursda\n   **   ~~~   ** Will be processed as Alpha=SP-CORNER_CLASS_1_POD_2_ZN_1_FLR_1 SYS-3 FLR-1 SCH-D HPLCMT-SOUTH ZN NECB SYSTEM 3 PSZ OCC SCH THURSDAY\n   ************* IDF Context for following error/warning message:\n   ************* Note -- lines truncated at 300 characters, if necessary...\n   *************   2238 Schedule:Week:Daily,\n   ************* indicated Name=Schedule:Week:Daily {d0380d08-2bc6-4849-8711-3f124c3647a4}\n   ************* Only last 7 lines before error line shown.....\n   *************   2239   Schedule:Week:Daily {d0380d08-2bc6-4849-8711-3f124c3647a4}, !- Name\n   *************   2240   Sp-Corner_Class_1_Pod_2_ZN_1_FLR_1 Sys-3 Flr-1 Sch-D HPlcmt-south ZN NECB System 3 PSZ Occ Sch Sunday, !- Sunday Schedule:Day Name\n   *************   2241   Sp-Corner_Class_1_Pod_2_ZN_1_FLR_1 Sys-3 Flr-1 Sch-D HPlcmt-south ZN NECB System 3 PSZ Occ Sch Monday, !- Monday Schedule:Day Name\n   *************   2242   Sp-Corner_Class_1_Pod_2_ZN_1_FLR_1 Sys-3 Flr-1 Sch-D HPlcmt-south ZN NECB System 3 PSZ Occ Sch Tuesday, !- Tuesday Schedule:Day Name\n   *************   2243   Sp-Corner_Class_1_Pod_2_ZN_1_FLR_1 Sys-3 Flr-1 Sch-D HPlcmt-south ZN NECB System 3 PSZ Occ Sch Wednesday, !- Wednesday Schedule:Day Name\n   *************   2244   Sp-Corner_Class_1_Pod_2_ZN_1_FLR_1 Sys-3 Flr-1 Sch-D HPlcmt-south ZN NECB System 3 PSZ Occ Sch Thursday, !- Thursday Schedule:Day Name\n   *************   2245   Sp-Corner_Class_1_Pod_2_ZN_1_FLR_1 Sys-3 Flr-1 Sch-D HPlcmt-south ZN NECB System 3 PSZ Occ Sch Friday, !- Friday Schedule:Day Name\n   ** Warning ** IP: IDF line~2245 Alpha Argument length exceeds maximum, will be truncated=  Sp-Corner_Class_1_Pod_2_ZN_1_FLR_1 Sys-3 Flr-1 Sch-D HPlcmt-south ZN NECB System 3 PSZ Occ Sch Frida\n   **   ~~~   ** Will be processed as Alpha=SP-CORNER_CLASS_1_POD_2_ZN_1_FLR_1 SYS-3 FLR-1 SCH-D HPLCMT-SOUTH ZN NECB SYSTEM 3 PSZ OCC SCH FRIDAY\n   ************* IDF Context for following error/warning message:\n   ************* Note -- lines truncated at 300 characters, if necessary...\n   *************   2238 Schedule:Week:Daily,\n   ************* indicated Name=Schedule:Week:Daily {d0380d08-2bc6-4849-8711-3f124c3647a4}\n   ************* Only last 8 lines before error line shown.....\n   *************   2239   Schedule:Week:Daily {d0380d08-2bc6-4849-8711-3f124c3647a4}, !- Name\n   *************   2240   Sp-Corner_Class_1_Pod_2_ZN_1_FLR_1 Sys-3 Flr-1 Sch-D HPlcmt-south ZN NECB System 3 PSZ Occ Sch Sunday, !- Sunday Schedule:Day Name\n   *************   2241   Sp-Corner_Class_1_Pod_2_ZN_1_FLR_1 Sys-3 Flr-1 Sch-D HPlcmt-south ZN NECB System 3 PSZ Occ Sch Monday, !- Monday Schedule:Day Name\n   *************   2242   Sp-Corner_Class_1_Pod_2_ZN_1_FLR_1 Sys-3 Flr-1 Sch-D HPlcmt-south ZN NECB System 3 PSZ Occ Sch Tuesday, !- Tuesday Schedule:Day Name\n   *************   2243   Sp-Corner_Class_1_Pod_2_ZN_1_FLR_1 Sys-3 Flr-1 Sch-D HPlcmt-south ZN NECB System 3 PSZ Occ Sch Wednesday, !- Wednesday Schedule:Day Name\n   *************   2244   Sp-Corner_Class_1_Pod_2_ZN_1_FLR_1 Sys-3 Flr-1 Sch-D HPlcmt-south ZN NECB System 3 PSZ Occ Sch Thursday, !- Thursday Schedule:Day Name\n   *************   2245   Sp-Corner_Class_1_Pod_2_ZN_1_FLR_1 Sys-3 Flr-1 Sch-D HPlcmt-south ZN NECB System 3 PSZ Occ Sch Friday, !- Friday Schedule:Day Name\n   *************   2246   Sp-Corner_Class_1_Pod_2_ZN_1_FLR_1 Sys-3 Flr-1 Sch-D HPlcmt-south ZN NECB System 3 PSZ Occ Sch Saturday, !- Saturday Schedule:Day Name\n   ** Warning ** IP: IDF line~2246 Alpha Argument length exceeds maximum, will be truncated=  Sp-Corner_Class_1_Pod_2_ZN_1_FLR_1 Sys-3 Flr-1 Sch-D HPlcmt-south ZN NECB System 3 PSZ Occ Sch Saturda\n   **   ~~~   ** Will be processed as Alpha=SP-CORNER_CLASS_1_POD_2_ZN_1_FLR_1 SYS-3 FLR-1 SCH-D HPLCMT-SOUTH ZN NECB SYSTEM 3 PSZ OCC SCH SATURDAY\n   ************* IDF Context for following error/warning message:\n   ************* Note -- lines truncated at 300 characters, if necessary...\n   *************   2238 Schedule:Week:Daily,\n   ************* indicated Name=Schedule:Week:Daily {d0380d08-2bc6-4849-8711-3f124c3647a4}\n   ************* Only last 9 lines before error line shown.....\n   *************   2239   Schedule:Week:Daily {d0380d08-2bc6-4849-8711-3f124c3647a4}, !- Name\n   *************   2240   Sp-Corner_Class_1_Pod_2_ZN_1_FLR_1 Sys-3 Flr-1 Sch-D HPlcmt-south ZN NECB System 3 PSZ Occ Sch Sunday, !- Sunday Schedule:Day Name\n   *************   2241   Sp-Corner_Class_1_Pod_2_ZN_1_FLR_1 Sys-3 Flr-1 Sch-D HPlcmt-south ZN NECB System 3 PSZ Occ Sch Monday, !- Monday Schedule:Day Name\n   *************   2242   Sp-Corner_Class_1_Pod_2_ZN_1_FLR_1 Sys-3 Flr-1 Sch-D HPlcmt-south ZN NECB System 3 PSZ Occ Sch Tuesday, !- Tuesday Schedule:Day Name\n   *************   2243   Sp-Corner_Class_1_Pod_2_ZN_1_FLR_1 Sys-3 Flr-1 Sch-D HPlcmt-south ZN NECB System 3 PSZ Occ Sch Wednesday, !- Wednesday Schedule:Day Name\n   *************   2244   Sp-Corner_Class_1_Pod_2_ZN_1_FLR_1 Sys-3 Flr-1 Sch-D HPlcmt-south ZN NECB System 3 PSZ Occ Sch Thursday, !- Thursday Schedule:Day Name\n   *************   2245   Sp-Corner_Class_1_Pod_2_ZN_1_FLR_1 Sys-3 Flr-1 Sch-D HPlcmt-south ZN NECB System 3 PSZ Occ Sch Friday, !- Friday Schedule:Day Name\n   *************   2246   Sp-Corner_Class_1_Pod_2_ZN_1_FLR_1 Sys-3 Flr-1 Sch-D HPlcmt-south ZN NECB System 3 PSZ Occ Sch Saturday, !- Saturday Schedule:Day Name\n   *************   2247   Sp-Corner_Class_1_Pod_2_ZN_1_FLR_1 Sys-3 Flr-1 Sch-D HPlcmt-south ZN NECB System 3 PSZ Occ Sch Default, !- Holiday Schedule:Day Name\n   ** Warning ** IP: IDF line~2247 Alpha Argument length exceeds maximum, will be truncated=  Sp-Corner_Class_1_Pod_2_ZN_1_FLR_1 Sys-3 Flr-1 Sch-D HPlcmt-south ZN NECB System 3 PSZ Occ Sch Defaul\n   **   ~~~   ** Will be processed as Alpha=SP-CORNER_CLASS_1_POD_2_ZN_1_FLR_1 SYS-3 FLR-1 SCH-D HPLCMT-SOUTH ZN NECB SYSTEM 3 PSZ OCC SCH DEFAULT\n   ************* IDF Context for following error/warning message:\n   ************* Note -- lines truncated at 300 characters, if necessary...\n   *************   2238 Schedule:Week:Daily,\n   ************* indicated Name=Schedule:Week:Daily {d0380d08-2bc6-4849-8711-3f124c3647a4}\n   ************* Only last 10 lines before error line shown.....\n   *************   2239   Schedule:Week:Daily {d0380d08-2bc6-4849-8711-3f124c3647a4}, !- Name\n   *************   2240   Sp-Corner_Class_1_Pod_2_ZN_1_FLR_1 Sys-3 Flr-1 Sch-D HPlcmt-south ZN NECB System 3 PSZ Occ Sch Sunday, !- Sunday Schedule:Day Name\n   *************   2241   Sp-Corner_Class_1_Pod_2_ZN_1_FLR_1 Sys-3 Flr-1 Sch-D HPlcmt-south ZN NECB System 3 PSZ Occ Sch Monday, !- Monday Schedule:Day Name\n   *************   2242   Sp-Corner_Class_1_Pod_2_ZN_1_FLR_1 Sys-3 Flr-1 Sch-D HPlcmt-south ZN NECB System 3 PSZ Occ Sch Tuesday, !- Tuesday Schedule:Day Name\n   *************   2243   Sp-Corner_Class_1_Pod_2_ZN_1_FLR_1 Sys-3 Flr-1 Sch-D HPlcmt-south ZN NECB System 3 PSZ Occ Sch Wednesday, !- Wednesday Schedule:Day Name\n   *************   2244   Sp-Corner_Class_1_Pod_2_ZN_1_FLR_1 Sys-3 Flr-1 Sch-D HPlcmt-south ZN NECB System 3 PSZ Occ Sch Thursday, !- Thursday Schedule:Day Name\n   *************   2245   Sp-Corner_Class_1_Pod_2_ZN_1_FLR_1 Sys-3 Flr-1 Sch-D HPlcmt-south ZN NECB System 3 PSZ Occ Sch Friday, !- Friday Schedule:Day Name\n   *************   2246   Sp-Corner_Class_1_Pod_2_ZN_1_FLR_1 Sys-3 Flr-1 Sch-D HPlcmt-south ZN NECB System 3 PSZ Occ Sch Saturday, !- Saturday Schedule:Day Name\n   *************   2247   Sp-Corner_Class_1_Pod_2_ZN_1_FLR_1 Sys-3 Flr-1 Sch-D HPlcmt-south ZN NECB System 3 PSZ Occ Sch Default, !- Holiday Schedule:Day Name\n   *************   2248   Sp-Corner_Class_1_Pod_2_ZN_1_FLR_1 Sys-3 Flr-1 Sch-D HPlcmt-south ZN NECB System 3 PSZ Occ Sch Summer Design Day, !- SummerDesignDay Schedule:Day Name\n   ** Warning ** IP: IDF line~2248 Alpha Argument length exceeds maximum, will be truncated=  Sp-Corner_Class_1_Pod_2_ZN_1_FLR_1 Sys-3 Flr-1 Sch-D HPlcmt-south ZN NECB System 3 PSZ Occ Sch Summer Design Da\n   **   ~~~   ** Will be processed as Alpha=SP-CORNER_CLASS_1_POD_2_ZN_1_FLR_1 SYS-3 FLR-1 SCH-D HPLCMT-SOUTH ZN NECB SYSTEM 3 PSZ OCC SCH SUMMER DESIGN DAY\n   ************* IDF Context for following error/warning message:\n   ************* Note -- lines truncated at 300 characters, if necessary...\n   *************   2238 Schedule:Week:Daily,\n   ************* indicated Name=Schedule:Week:Daily {d0380d08-2bc6-4849-8711-3f124c3647a4}\n   ************* Only last 10 lines before error line shown.....\n   *************   2240   Sp-Corner_Class_1_Pod_2_ZN_1_FLR_1 Sys-3 Flr-1 Sch-D HPlcmt-south ZN NECB System 3 PSZ Occ Sch Sunday, !- Sunday Schedule:Day Name\n   *************   2241   Sp-Corner_Class_1_Pod_2_ZN_1_FLR_1 Sys-3 Flr-1 Sch-D HPlcmt-south ZN NECB System 3 PSZ Occ Sch Monday, !- Monday Schedule:Day Name\n   *************   2242   Sp-Corner_Class_1_Pod_2_ZN_1_FLR_1 Sys-3 Flr-1 Sch-D HPlcmt-south ZN NECB System 3 PSZ Occ Sch Tuesday, !- Tuesday Schedule:Day Name\n   *************   2243   Sp-Corner_Class_1_Pod_2_ZN_1_FLR_1 Sys-3 Flr-1 Sch-D HPlcmt-south ZN NECB System 3 PSZ Occ Sch Wednesday, !- Wednesday Schedule:Day Name\n   *************   2244   Sp-Corner_Class_1_Pod_2_ZN_1_FLR_1 Sys-3 Flr-1 Sch-D HPlcmt-south ZN NECB System 3 PSZ Occ Sch Thursday, !- Thursday Schedule:Day Name\n   *************   2245   Sp-Corner_Class_1_Pod_2_ZN_1_FLR_1 Sys-3 Flr-1 Sch-D HPlcmt-south ZN NECB System 3 PSZ Occ Sch Friday, !- Friday Schedule:Day Name\n   *************   2246   Sp-Corner_Class_1_Pod_2_ZN_1_FLR_1 Sys-3 Flr-1 Sch-D HPlcmt-south ZN NECB System 3 PSZ Occ Sch Saturday, !- Saturday Schedule:Day Name\n   *************   2247   Sp-Corner_Class_1_Pod_2_ZN_1_FLR_1 Sys-3 Flr-1 Sch-D HPlcmt-south ZN NECB System 3 PSZ Occ Sch Default, !- Holiday Schedule:Day Name\n   *************   2248   Sp-Corner_Class_1_Pod_2_ZN_1_FLR_1 Sys-3 Flr-1 Sch-D HPlcmt-south ZN NECB System 3 PSZ Occ Sch Summer Design Day, !- SummerDesignDay Schedule:Day Name\n   *************   2249   Sp-Corner_Class_1_Pod_2_ZN_1_FLR_1 Sys-3 Flr-1 Sch-D HPlcmt-south ZN NECB System 3 PSZ Occ Sch Winter Design Day, !- WinterDesignDay Schedule:Day Name\n   ** Warning ** IP: IDF line~2249 Alpha Argument length exceeds maximum, will be truncated=  Sp-Corner_Class_1_Pod_2_ZN_1_FLR_1 Sys-3 Flr-1 Sch-D HPlcmt-south ZN NECB System 3 PSZ Occ Sch Winter Design Da\n   **   ~~~   ** Will be processed as Alpha=SP-CORNER_CLASS_1_POD_2_ZN_1_FLR_1 SYS-3 FLR-1 SCH-D HPLCMT-SOUTH ZN NECB SYSTEM 3 PSZ OCC SCH WINTER DESIGN DAY\n   ************* IDF Context for following error/warning message:\n   ************* Note -- lines truncated at 300 characters, if necessary...\n   *************   2238 Schedule:Week:Daily,\n   ************* indicated Name=Schedule:Week:Daily {d0380d08-2bc6-4849-8711-3f124c3647a4}\n   ************* Only last 10 lines before error line shown.....\n   *************   2241   Sp-Corner_Class_1_Pod_2_ZN_1_FLR_1 Sys-3 Flr-1 Sch-D HPlcmt-south ZN NECB System 3 PSZ Occ Sch Monday, !- Monday Schedule:Day Name\n   *************   2242   Sp-Corner_Class_1_Pod_2_ZN_1_FLR_1 Sys-3 Flr-1 Sch-D HPlcmt-south ZN NECB System 3 PSZ Occ Sch Tuesday, !- Tuesday Schedule:Day Name\n   *************   2243   Sp-Corner_Class_1_Pod_2_ZN_1_FLR_1 Sys-3 Flr-1 Sch-D HPlcmt-south ZN NECB System 3 PSZ Occ Sch Wednesday, !- Wednesday Schedule:Day Name\n   *************   2244   Sp-Corner_Class_1_Pod_2_ZN_1_FLR_1 Sys-3 Flr-1 Sch-D HPlcmt-south ZN NECB System 3 PSZ Occ Sch Thursday, !- Thursday Schedule:Day Name\n   *************   2245   Sp-Corner_Class_1_Pod_2_ZN_1_FLR_1 Sys-3 Flr-1 Sch-D HPlcmt-south ZN NECB System 3 PSZ Occ Sch Friday, !- Friday Schedule:Day Name\n   *************   2246   Sp-Corner_Class_1_Pod_2_ZN_1_FLR_1 Sys-3 Flr-1 Sch-D HPlcmt-south ZN NECB System 3 PSZ Occ Sch Saturday, !- Saturday Schedule:Day Name\n   *************   2247   Sp-Corner_Class_1_Pod_2_ZN_1_FLR_1 Sys-3 Flr-1 Sch-D HPlcmt-south ZN NECB System 3 PSZ Occ Sch Default, !- Holiday Schedule:Day Name\n   *************   2248   Sp-Corner_Class_1_Pod_2_ZN_1_FLR_1 Sys-3 Flr-1 Sch-D HPlcmt-south ZN NECB System 3 PSZ Occ Sch Summer Design Day, !- SummerDesignDay Schedule:Day Name\n   *************   2249   Sp-Corner_Class_1_Pod_2_ZN_1_FLR_1 Sys-3 Flr-1 Sch-D HPlcmt-south ZN NECB System 3 PSZ Occ Sch Winter Design Day, !- WinterDesignDay Schedule:Day Name\n   *************   2250   Sp-Corner_Class_1_Pod_2_ZN_1_FLR_1 Sys-3 Flr-1 Sch-D HPlcmt-south ZN NECB System 3 PSZ Occ Sch Default, !- CustomDay1 Schedule:Day Name\n   ** Warning ** IP: IDF line~2250 Alpha Argument length exceeds maximum, will be truncated=  Sp-Corner_Class_1_Pod_2_ZN_1_FLR_1 Sys-3 Flr-1 Sch-D HPlcmt-south ZN NECB System 3 PSZ Occ Sch Defaul\n   **   ~~~   ** Will be processed as Alpha=SP-CORNER_CLASS_1_POD_2_ZN_1_FLR_1 SYS-3 FLR-1 SCH-D HPLCMT-SOUTH ZN NECB SYSTEM 3 PSZ OCC SCH DEFAULT\n   ************* IDF Context for following error/warning message:\n   ************* Note -- lines truncated at 300 characters, if necessary...\n   *************   2238 Schedule:Week:Daily,\n   ************* indicated Name=Schedule:Week:Daily {d0380d08-2bc6-4849-8711-3f124c3647a4}\n   ************* Only last 10 lines before error line shown.....\n   *************   2242   Sp-Corner_Class_1_Pod_2_ZN_1_FLR_1 Sys-3 Flr-1 Sch-D HPlcmt-south ZN NECB System 3 PSZ Occ Sch Tuesday, !- Tuesday Schedule:Day Name\n   *************   2243   Sp-Corner_Class_1_Pod_2_ZN_1_FLR_1 Sys-3 Flr-1 Sch-D HPlcmt-south ZN NECB System 3 PSZ Occ Sch Wednesday, !- Wednesday Schedule:Day Name\n   *************   2244   Sp-Corner_Class_1_Pod_2_ZN_1_FLR_1 Sys-3 Flr-1 Sch-D HPlcmt-south ZN NECB System 3 PSZ Occ Sch Thursday, !- Thursday Schedule:Day Name\n   *************   2245   Sp-Corner_Class_1_Pod_2_ZN_1_FLR_1 Sys-3 Flr-1 Sch-D HPlcmt-south ZN NECB System 3 PSZ Occ Sch Friday, !- Friday Schedule:Day Name\n   *************   2246   Sp-Corner_Class_1_Pod_2_ZN_1_FLR_1 Sys-3 Flr-1 Sch-D HPlcmt-south ZN NECB System 3 PSZ Occ Sch Saturday, !- Saturday Schedule:Day Name\n   *************   2247   Sp-Corner_Class_1_Pod_2_ZN_1_FLR_1 Sys-3 Flr-1 Sch-D HPlcmt-south ZN NECB System 3 PSZ Occ Sch Default, !- Holiday Schedule:Day Name\n   *************   2248   Sp-Corner_Class_1_Pod_2_ZN_1_FLR_1 Sys-3 Flr-1 Sch-D HPlcmt-south ZN NECB System 3 PSZ Occ Sch Summer Design Day, !- SummerDesignDay Schedule:Day Name\n   *************   2249   Sp-Corner_Class_1_Pod_2_ZN_1_FLR_1 Sys-3 Flr-1 Sch-D HPlcmt-south ZN NECB System 3 PSZ Occ Sch Winter Design Day, !- WinterDesignDay Schedule:Day Name\n   *************   2250   Sp-Corner_Class_1_Pod_2_ZN_1_FLR_1 Sys-3 Flr-1 Sch-D HPlcmt-south ZN NECB System 3 PSZ Occ Sch Default, !- CustomDay1 Schedule:Day Name\n   *************   2251   Sp-Corner_Class_1_Pod_2_ZN_1_FLR_1 Sys-3 Flr-1 Sch-D HPlcmt-south ZN NECB System 3 PSZ Occ Sch Default; !- CustomDay2 Schedule:Day Name\n   ** Warning ** IP: IDF line~2251 Alpha Argument length exceeds maximum, will be truncated=  Sp-Corner_Class_1_Pod_2_ZN_1_FLR_1 Sys-3 Flr-1 Sch-D HPlcmt-south ZN NECB System 3 PSZ Occ Sch Defaul\n   **   ~~~   ** Will be processed as Alpha=SP-CORNER_CLASS_1_POD_2_ZN_1_FLR_1 SYS-3 FLR-1 SCH-D HPLCMT-SOUTH ZN NECB SYSTEM 3 PSZ OCC SCH DEFAULT\n   ************* IDF Context for following error/warning message:\n   ************* Note -- lines truncated at 300 characters, if necessary...\n   *************   2262 Schedule:Day:Interval,\n   ************* indicated Name=Sp-Corner_Class_1_Pod_2_ZN_1_FLR_1 Sys-3 Flr-1 Sch-D HPlcmt-south ZN NECB System 3 PSZ Occ Sch Default\n   ************* Only last 1 lines before error line shown.....\n   *************   2263   Sp-Corner_Class_1_Pod_2_ZN_1_FLR_1 Sys-3 Flr-1 Sch-D HPlcmt-south ZN NECB System 3 PSZ Occ Sch Default, !- Name\n   ** Warning ** IP: IDF line~2263 Alpha Argument length exceeds maximum, will be truncated=  Sp-Corner_Class_1_Pod_2_ZN_1_FLR_1 Sys-3 Flr-1 Sch-D HPlcmt-south ZN NECB System 3 PSZ Occ Sch Defaul\n   **   ~~~   ** Will be processed as Alpha=SP-CORNER_CLASS_1_POD_2_ZN_1_FLR_1 SYS-3 FLR-1 SCH-D HPLCMT-SOUTH ZN NECB SYSTEM 3 PSZ OCC SCH DEFAULT\n   ************* IDF Context for following error/warning message:\n   ************* Note -- lines truncated at 300 characters, if necessary...\n   *************   2269 Schedule:Day:Interval,\n   ************* indicated Name=Sp-Corner_Class_1_Pod_2_ZN_1_FLR_1 Sys-3 Flr-1 Sch-D HPlcmt-south ZN NECB System 3 PSZ Occ Sch Summer Design Day\n   ************* Only last 1 lines before error line shown.....\n   *************   2270   Sp-Corner_Class_1_Pod_2_ZN_1_FLR_1 Sys-3 Flr-1 Sch-D HPlcmt-south ZN NECB System 3 PSZ Occ Sch Summer Design Day, !- Name\n   ** Warning ** IP: IDF line~2270 Alpha Argument length exceeds maximum, will be truncated=  Sp-Corner_Class_1_Pod_2_ZN_1_FLR_1 Sys-3 Flr-1 Sch-D HPlcmt-south ZN NECB System 3 PSZ Occ Sch Summer Design Da\n   **   ~~~   ** Will be processed as Alpha=SP-CORNER_CLASS_1_POD_2_ZN_1_FLR_1 SYS-3 FLR-1 SCH-D HPLCMT-SOUTH ZN NECB SYSTEM 3 PSZ OCC SCH SUMMER DESIGN DAY\n   ************* IDF Context for following error/warning message:\n   ************* Note -- lines truncated at 300 characters, if necessary...\n   *************   2276 Schedule:Day:Interval,\n   ************* indicated Name=Sp-Corner_Class_1_Pod_2_ZN_1_FLR_1 Sys-3 Flr-1 Sch-D HPlcmt-south ZN NECB System 3 PSZ Occ Sch Winter Design Day\n   ************* Only last 1 lines before error line shown.....\n   *************   2277   Sp-Corner_Class_1_Pod_2_ZN_1_FLR_1 Sys-3 Flr-1 Sch-D HPlcmt-south ZN NECB System 3 PSZ Occ Sch Winter Design Day, !- Name\n   ** Warning ** IP: IDF line~2277 Alpha Argument length exceeds maximum, will be truncated=  Sp-Corner_Class_1_Pod_2_ZN_1_FLR_1 Sys-3 Flr-1 Sch-D HPlcmt-south ZN NECB System 3 PSZ Occ Sch Winter Design Da\n   **   ~~~   ** Will be processed as Alpha=SP-CORNER_CLASS_1_POD_2_ZN_1_FLR_1 SYS-3 FLR-1 SCH-D HPLCMT-SOUTH ZN NECB SYSTEM 3 PSZ OCC SCH WINTER DESIGN DAY\n   ************* IDF Context for following error/warning message:\n   ************* Note -- lines truncated at 300 characters, if necessary...\n   *************   2545 Schedule:Day:Interval,\n   ************* indicated Name=Sp-Corner_Class_1_Pod_3_ZN_1_FLR_1 Sys-3 Flr-1 Sch-D HPlcmt-south ZN NECB System 3 PSZ Occ Sch Sunday\n   ************* Only last 1 lines before error line shown.....\n   *************   2546   Sp-Corner_Class_1_Pod_3_ZN_1_FLR_1 Sys-3 Flr-1 Sch-D HPlcmt-south ZN NECB System 3 PSZ Occ Sch Sunday, !- Name\n   ** Warning ** IP: IDF line~2546 Alpha Argument length exceeds maximum, will be truncated=  Sp-Corner_Class_1_Pod_3_ZN_1_FLR_1 Sys-3 Flr-1 Sch-D HPlcmt-south ZN NECB System 3 PSZ Occ Sch Sunda\n   **   ~~~   ** Will be processed as Alpha=SP-CORNER_CLASS_1_POD_3_ZN_1_FLR_1 SYS-3 FLR-1 SCH-D HPLCMT-SOUTH ZN NECB SYSTEM 3 PSZ OCC SCH SUNDAY\n   ************* IDF Context for following error/warning message:\n   ************* Note -- lines truncated at 300 characters, if necessary...\n   *************   2552 Schedule:Day:Interval,\n   ************* indicated Name=Sp-Corner_Class_1_Pod_3_ZN_1_FLR_1 Sys-3 Flr-1 Sch-D HPlcmt-south ZN NECB System 3 PSZ Occ Sch Monday\n   ************* Only last 1 lines before error line shown.....\n   *************   2553   Sp-Corner_Class_1_Pod_3_ZN_1_FLR_1 Sys-3 Flr-1 Sch-D HPlcmt-south ZN NECB System 3 PSZ Occ Sch Monday, !- Name\n   ** Warning ** IP: IDF line~2553 Alpha Argument length exceeds maximum, will be truncated=  Sp-Corner_Class_1_Pod_3_ZN_1_FLR_1 Sys-3 Flr-1 Sch-D HPlcmt-south ZN NECB System 3 PSZ Occ Sch Monda\n   **   ~~~   ** Will be processed as Alpha=SP-CORNER_CLASS_1_POD_3_ZN_1_FLR_1 SYS-3 FLR-1 SCH-D HPLCMT-SOUTH ZN NECB SYSTEM 3 PSZ OCC SCH MONDAY\n   ************* IDF Context for following error/warning message:\n   ************* Note -- lines truncated at 300 characters, if necessary...\n   *************   2567 Schedule:Day:Interval,\n   ************* indicated Name=Sp-Corner_Class_1_Pod_3_ZN_1_FLR_1 Sys-3 Flr-1 Sch-D HPlcmt-south ZN NECB System 3 PSZ Occ Sch Tuesday\n   ************* Only last 1 lines before error line shown.....\n   *************   2568   Sp-Corner_Class_1_Pod_3_ZN_1_FLR_1 Sys-3 Flr-1 Sch-D HPlcmt-south ZN NECB System 3 PSZ Occ Sch Tuesday, !- Name\n   ** Warning ** IP: IDF line~2568 Alpha Argument length exceeds maximum, will be truncated=  Sp-Corner_Class_1_Pod_3_ZN_1_FLR_1 Sys-3 Flr-1 Sch-D HPlcmt-south ZN NECB System 3 PSZ Occ Sch Tuesda\n   **   ~~~   ** Will be processed as Alpha=SP-CORNER_CLASS_1_POD_3_ZN_1_FLR_1 SYS-3 FLR-1 SCH-D HPLCMT-SOUTH ZN NECB SYSTEM 3 PSZ OCC SCH TUESDAY\n   ************* IDF Context for following error/warning message:\n   ************* Note -- lines truncated at 300 characters, if necessary...\n   *************   2582 Schedule:Day:Interval,\n   ************* indicated Name=Sp-Corner_Class_1_Pod_3_ZN_1_FLR_1 Sys-3 Flr-1 Sch-D HPlcmt-south ZN NECB System 3 PSZ Occ Sch Wednesday\n   ************* Only last 1 lines before error line shown.....\n   *************   2583   Sp-Corner_Class_1_Pod_3_ZN_1_FLR_1 Sys-3 Flr-1 Sch-D HPlcmt-south ZN NECB System 3 PSZ Occ Sch Wednesday, !- Name\n   ** Warning ** IP: IDF line~2583 Alpha Argument length exceeds maximum, will be truncated=  Sp-Corner_Class_1_Pod_3_ZN_1_FLR_1 Sys-3 Flr-1 Sch-D HPlcmt-south ZN NECB System 3 PSZ Occ Sch Wednesda\n   **   ~~~   ** Will be processed as Alpha=SP-CORNER_CLASS_1_POD_3_ZN_1_FLR_1 SYS-3 FLR-1 SCH-D HPLCMT-SOUTH ZN NECB SYSTEM 3 PSZ OCC SCH WEDNESDAY\n   ************* IDF Context for following error/warning message:\n   ************* Note -- lines truncated at 300 characters, if necessary...\n   *************   2597 Schedule:Day:Interval,\n   ************* indicated Name=Sp-Corner_Class_1_Pod_3_ZN_1_FLR_1 Sys-3 Flr-1 Sch-D HPlcmt-south ZN NECB System 3 PSZ Occ Sch Thursday\n   ************* Only last 1 lines before error line shown.....\n   *************   2598   Sp-Corner_Class_1_Pod_3_ZN_1_FLR_1 Sys-3 Flr-1 Sch-D HPlcmt-south ZN NECB System 3 PSZ Occ Sch Thursday, !- Name\n   ** Warning ** IP: IDF line~2598 Alpha Argument length exceeds maximum, will be truncated=  Sp-Corner_Class_1_Pod_3_ZN_1_FLR_1 Sys-3 Flr-1 Sch-D HPlcmt-south ZN NECB System 3 PSZ Occ Sch Thursda\n   **   ~~~   ** Will be processed as Alpha=SP-CORNER_CLASS_1_POD_3_ZN_1_FLR_1 SYS-3 FLR-1 SCH-D HPLCMT-SOUTH ZN NECB SYSTEM 3 PSZ OCC SCH THURSDAY\n   ************* IDF Context for following error/warning message:\n   ************* Note -- lines truncated at 300 characters, if necessary...\n   *************   2612 Schedule:Day:Interval,\n   ************* indicated Name=Sp-Corner_Class_1_Pod_3_ZN_1_FLR_1 Sys-3 Flr-1 Sch-D HPlcmt-south ZN NECB System 3 PSZ Occ Sch Friday\n   ************* Only last 1 lines before error line shown.....\n   *************   2613   Sp-Corner_Class_1_Pod_3_ZN_1_FLR_1 Sys-3 Flr-1 Sch-D HPlcmt-south ZN NECB System 3 PSZ Occ Sch Friday, !- Name\n   ** Warning ** IP: IDF line~2613 Alpha Argument length exceeds maximum, will be truncated=  Sp-Corner_Class_1_Pod_3_ZN_1_FLR_1 Sys-3 Flr-1 Sch-D HPlcmt-south ZN NECB System 3 PSZ Occ Sch Frida\n   **   ~~~   ** Will be processed as Alpha=SP-CORNER_CLASS_1_POD_3_ZN_1_FLR_1 SYS-3 FLR-1 SCH-D HPLCMT-SOUTH ZN NECB SYSTEM 3 PSZ OCC SCH FRIDAY\n   ************* IDF Context for following error/warning message:\n   ************* Note -- lines truncated at 300 characters, if necessary...\n   *************   2627 Schedule:Day:Interval,\n   ************* indicated Name=Sp-Corner_Class_1_Pod_3_ZN_1_FLR_1 Sys-3 Flr-1 Sch-D HPlcmt-south ZN NECB System 3 PSZ Occ Sch Saturday\n   ************* Only last 1 lines before error line shown.....\n   *************   2628   Sp-Corner_Class_1_Pod_3_ZN_1_FLR_1 Sys-3 Flr-1 Sch-D HPlcmt-south ZN NECB System 3 PSZ Occ Sch Saturday, !- Name\n   ** Warning ** IP: IDF line~2628 Alpha Argument length exceeds maximum, will be truncated=  Sp-Corner_Class_1_Pod_3_ZN_1_FLR_1 Sys-3 Flr-1 Sch-D HPlcmt-south ZN NECB System 3 PSZ Occ Sch Saturda\n   **   ~~~   ** Will be processed as Alpha=SP-CORNER_CLASS_1_POD
[...]
dA3W/F50Pdh8XnQt2jxedD3JfJ50Lcs8nnQdzPyedA3OvJ5NJDnmtsj+TwayHPNTZV8Hg2s5JqySudR+YaSemVV+QoTBgu6rGKzoDuDzYLuCzYLuqxis6DLKjYLuqxis6DLKjYLerpls9CUVXwe9HTL50FPt3wedFnF50GXVXwedFnF50GXVXwedFnF50GXVXweDeS5pqzi82ggzzVlFZ9HAyu5pqzSeVRuBF+vrCp3imewoMsqNgu6M9gs6L5gs6DLKjYLuqxis6DLKjYLuqxis6CnWzYLTVnF50FPt3we9HTL50GXVXwedFnF50GXVXwedFnF50GXVXwedFnF59FAnmvKKj6PBvJcU1bxeTSwkmvKKp1H5X679cqqckNeBgu6rGKzoDuDzYLuCzYLuqxis6DLKjYLuqxis6DLKjYLerpls9CUVXwe9HTL50FPt3wedFnF50GXVXwedFnF50GXVXwedFnF50GXVXweDeS5pqzi82ggzzVlFZ9HAyu5pqzSeVRua1ivrCr3PWSwoMsqNgu6M9gs6L5gs6DLKjYLuqxis6DLKjYLuqxis6CnWzYL7WZrXB663aq4PHQbWXF56Pa44vLQbX/F5aHb843LQ7cdHJeHbqc4Lg/dJnJcHg3kuXbrOS6PBvJcu2Edl0cDK7mmrFp5fK+zw+tyR2dxLCJ5t9pBttg4tpXeTtrFDrCVW8WutoVOZfY2nkd+2up328Jx+m3RU7+5/Xrbzd7nGI+7Xfv+wMvkJE4WJ/dBWm6r/Hj9NfaezgXOE18mX+Zql+PaJyqOxXOOj9JL54ksMdRGzct23/C+3wgjjDDCCCOMMMIII4wwwggjjDDCCCOMMMIII4wwwggjjDDCCCOMMMIII4wwwggjjDDCCCOMMMIII4wwwggjjDDCCCOMMMII/6XCCzu+lUkS+PKjpx6sdezu//m8qno0Nn3+aOyFTAKZLh+vtdqrB4hnYZzZYRDJykdk05ee061+sja1i1fPz+LQy4I4yqGsNJOzzpUcx4m06j35/EFOZOQ/v6Dys9Zety166snlrnqQWf2wQjnOFFiF9ErWHk5kdhplqn1yi/E8GhWkrW3xR4XEilA+nn1Z+Sy3OoKxaGXTILXTolfqGanjyUl23n6n3mja+i+wqdoKXz06nrMvdYezOA2U4Lv84zpXszqUzAtUSXxnhrTCCiJfqnzoOG3Ds1fH9bonjgMZqvHWWrZpmSeTJJ7PpC9+/ln8bfn5vT2ceuny+XeVYNtPo4sXo3mD2N5kcqY87FBGk2wq3ghX/FNYJ2FoiaPn30jDYCRbHWf7svt9uzLf/nQlcSJa1/mldH8R17nNcqgufdVnf89nHPMOUocaxku9y+vv9g+5EMfHx2XjradYqC67/dr0UlfHVSK9H+uc/GB4jun3VXstr+5YDWs1GJYjpdjIwR56aRpMIukP1BYR6WXRkt/Xa8pVR8/m6bS1bl/kXXpU9uf6mRSGR3Wu0lbfXNclzZL4h6znU353Xad45o2CbFHPavnlta+qsFhZrauymkieTyvrpIfx5KOOVTo/n3hERzimaibpVp/1oV2sqrW+/1BVU6hjZ0d8/v2r+Pf571/ExfmXr799+lV8OP/1t4F4f/rltJ7AWT5ry3tPlWgii0UaJ5mI5jf5OBiJYkuTVHjpKC9egmhSQ3HV9krnycrstcVV/cklkdk8icTMS1J5FsZe1vLUlL+dd+WTz66Kz2o1ZnWJ9sR2eQlVwg+b3enlsf4s0r1I9taWL8fePMzELInzOUxutcXWTwcHg8Hp6daGN54BDnCAAxzgAAc4wAEOcIADnL8mjkjnN/mfwMKX6kPhewtFlEgfNKABDWhAAxrQgAY0oAENaECjp7krbs36H5qrcC6BAxzgAAc4wAEOcIADHOAABzjr4Dy+N9BR7w28mFPvDew5xf+wnZzs7h4eghSkIAUpSEEKUpCCFKQgBSlIQQrS10HqFqReRpF2C9Jez3UP9kAKUpCCFKQgBSlIQQpSkIIUpCAF6esg7SnSsyQgSN3DgtRx9vd7PZCCFKQgBSlIQQpSkIIUpCAFKUhB+jpIdxXp1+mcIj0oSA/zo/8WpCAFKUhBClKQghSkIAUpSEEKUpC+DtK+Iv2X9CnS/YL03bvBYH8fpCAFKUhBClKQghSkIAUpSEEKUpC+DtK94l8m5pIi3StIB4O9PZCCFKQgBSlIQQpSkIIUpCAFKUhB+lpI9xXpx5jaWdDtF6QHB67b74MUpCAFKUhBClKQghSkIAUpSEEK0sZIVyh+4t21KsXu7SzIQnkx9WbSzuR91tp6H8+TtBpj8ecz3wU3MkqDOAplWihUSOzsiBPfF54olMRdkE1FGt9I4fcqzkxvJ7Y3m8nIb1nK29quOGF12F6WJS3r3mqLva7hSYv8JLf+SWm2CGWJ1/Gi0TRO8vOtUI4NaJca4zjKOncymEwzpXEVh359jbJvLmadj/MwGw7CfIwOneHn2B/2ht8+5b+effgydMTFIu30xFmYdPLfR9POO/H+czi6yTppPM/75dsn8el08FZ9LZM3oic+X3wT56OR+u7Wtq6n3+ykoySYZf8gv/Nmxw9uXw6T59BiuZYI/GNrpNJgkLecF0QyGTqOa4miPY8tP0hnobc4CqIwj3Wuwnj04xeLBsxVy2sQ2WKWn6+adOfau/XKT7VnquPWS9SQFcfCD25mobQjeXdxO2lZP70A2Ra73W7xozIHla7vZV4ufPmHFXpXMrSOLF+OvbyrxSyJx0EorXYZGd5bR47dbVu3XjiXy99HaqrKz8lnn8Hg9NR6aNfScZl0ekw6u0w6fSadPSadfSadAyadQyYdp8slxDWiHa4h7XCNaYdrUDtco9rhGtYO17h2uAa2wzWyXa6R7bLN1Vwj2+Ua2a7RyBbp/Obm2bura61oifQNZMg2MpMhW8hMhmwfMxky781kyKw3kyFz3kyGzHgzGTLfzWTohcxQh2kc08uYoQ7TSKYXMUMdprFML2GGOkyjmV7ADHWYxjO9fBnqcM3LTOOZXrsMdeqP57sgysyXrSv1UX0dsnkMdcjmMdQhm8dQh0x3Qx0y3Q11yHQ31CHT3VCHTHdDHXr9MhXiGtH0CmYqxDWm6TXMVIhrVNOrmKkQ17im1zFTIa6RTa9kpkJsczXXyKYXM1Oh+iP78T8zKl82TC1z3Wd/6JVvI2awcDdv0du8xe7mLfqbt9jbvMX+5i0ONm9xuHmLZyv7pjwayG+ngQR3Gshwp4EUdxrIcaeBJHcayHKngTR3Gshzt4E8d5tYxxvIc7eBPHfXy/PKdzrWK6vKlz4yWNC9wWZBdwabBd0XbBb0lMtmQc+4bBb0hMtmQc+3bBb0dMtmoSmr+DwayG9NWcXn0UCGa8oqPo8GclxTVvF5NJDlmrKKz6OBPNeUVXweTazjDeS5pqzi81gvzytfnVWvrCrfrcVgQfcGmwXdGWwWdF+wWdBTLpsFPeOyWdATLpsFPd+yWdDTLZuF5oZAPg/6jio+D/pmKz4P+j4sPg/6Fi0+D/q+RD4P+pZFPg/6bkY+D/pGRz6PBvJcc3skn0cDea65qZLPo4GVXFNW6Twq31BSr6wqX2HCYEGXVWwWdGewWdB9wWZBl1VsFnRZxWZBl1VsFnRZxWZBT7dsFpqyis+Dnm75POjpls+DLqv4POiyis+DLqv4POiyis+DLqv4POiyis+jgTzXlFV8Hg3kuaas4vNoYCXXlFU6j8qN4OuVVeVO8QwWdFnFZkF3BpsF3RdsFnRZxWZBl1VsFnRZxWZBl1VsFvR0y2ahKav4POjpls+Dnm75POiyis+DLqv4POiyis+DLqv4POiyis+DLqv4PBrIc01ZxefRQJ5ryio+jwZWck1ZpfOo3G+3XllVbsjLYEGXVWwWdGewWdB9wWZBl1VsFnRZxWZBl1VsFnRZxWZBT7dsFpqyis+Dnm75POjpls+DLqv4POiyis+DLqv4POiyis+DLqv4POiyis+jgTzXlFV8Hg3kuaas4vNoYCXXlFU6j8ptDeuVVeW+hwwWdFnFZkF3BpsF3RdsFnRZxWZBl1VsFnRZxWZBl1VsFvR0y2ah3WyNy0O3WxWXh24jKy4P3R5XXB667a+4PHR7vnF56LaD4/LQ7RTH5aHbRI7Lo4E81249x+XRQJ5rN6zj8mhgJdeUVSuP73V2eF3u6CyORSTvVjvIFhvHttLbSbvYAbZyq9jVttCpzN7G88hPW/1uWzhOvy166je3X2+72fsc43G3a98feJmcxMni5D5Iy22VH6+/xt7TucB54svky1ztclz7RMWxeM7xUXrpPJElhtqoednuG973G2GEEUYYYYQRRhhhhBFGGGGEEUYYYYQRRhhhhBFGGGGEEUYYYYQRRhhhhBFGGGGEEUYYYYQRRhhhhBFGGGGEEUYYYYQRRhjhv1R4Yce3MkkCX3701IO1jt39P59XVY/Gps8fjb2QSSDT5eO1Vnv1APEsjDM7DCJZ+Yhs+tJzutVP1qZ28er5WRx6WRBHOZSVZnLWuZLjOJFWvSefP8iJjPznF1R+1trrtkVPPbncVQ8yqx9WKMeZAquQXsnaw4nMTqNMtU9uMZ5Ho4K0tS3+qJBYEcrHsy8rn+VWRzAWrWwapHZa9Eo9I3U8OcnO2+/UG01b/wU2VVvhq0fHc/al7nAWp4ESfJd/XOdqVoeSeYEqie/MkFZYQeRLlQ8dp2149uq4XvfEcSBDNd5ayzYt82SSxPOZ9MXPP4u/LT+/t4dTL10+/64SbPtpdPFiNG8Q25tMzpSHHcpokk3FG+GKfwrrJAwtcfT8G2kYjGSr42xfdr9vV+bbn64kTkTrOr+U7i/iOrdZDtWlr/rs7/mMY95B6lDDeKl3ef3d/iEX4vj4uGy89RQL1WW3X5te6uq4SqT3Y52THwzPMf2+aq/l1R2rYa0Gw3KkFBs52EMvTYNJJP2B2iIivSxa8vt6Tbnq6Nk8nbbW7Yu8S4/K/lw/k8LwqM5V2uqb67qkWRL/kPV8yu+u6xTPvFGQLepZLb+89lUVFiurdVVWE8nzaWWd9DCefNSxSufnE4/oCMdUzSTd6rM+tItVtdb3H6pqCnXs7IjPv38V/z7//Yu4OP/y9bdPv4oP57/+NhDvT7+c1hM4y2dtee+pEk1ksUjjJBPR/CYfByNRbGmSCi8d5cVLEE1qKK7aXuk8WZm9triqP7kkMpsnkZh5SSrPwtjLWp6a8rfzrnzy2VXxWa3GrC7RntguL6FK+GGzO7081p9FuhfJ3try5dibh5mYJXE+h8mtttj66eBgMDg93drwxjPAAQ5wgAMc4AAHOMABDnCA89fEEen8Jv8TWPhSfSh8b6GIEumDBjSgAQ1oQAMa0IAGNKABDWj0NHfFrVn/Q3MVziVwgAMc4AAHOMABDnCAAxzgAGcdnMf3BjrqvYEXc+q9gT2n+B+2k5Pd3cNDkIIUpCAFKUhBClKQghSkIAUpSEH6OkjdgtTLKNJuQdrrue7BHkhBClKQghSkIAUpSEEKUpCCFKQgfR2kPUV6lgQEqXtYkDrO/n6vB1KQghSkIAUpSEEKUpCCFKQgBSlIXwfpriL9Op1TpAcF6WF+9N+CFKQgBSlIQQpSkIIUpCAFKUhBCtLXQdpXpP+SPkW6X5C+ezcY7O+DFKQgBSlIQQpSkIIUpCAFKUhBCtLXQbpX/MvEXFKkewXpYLC3B1KQghSkIAUpSEEKUpCCFKQgBSlIXwvpviL9GFM7C7r9gvTgwHX7fZCCFKQgBSlIQQpSkIIUpCAFKUhB2hjpCsVPvLtWpdi9nQVZKC+m3kzambzPWlvv43mSVmMs/nzmu+BGRmkQR6FMC4UKiZ0dceL7whOFkrgLsqlI4xsp/F7FmentxPZmMxn5LUt5W9sVJ6wO28uypGXdW22x1zU8aZGf5NY/Kc0WoSzxOl40msZJfr4VyrEB7VJjHEdZ504Gk2mmNK7i0K+vUfbNxazzcR5mw0GYj9GhO/wc+0Nn+O1T/uPsw5ehIy4WaacnzsKkk/8+mnbeifefw9FN1oniJO+Xb5/Ep9PBW/W1TN6Invh88U2cj0bqu1vbup5+s5OOkmCW/YP8zpsdP7h9OUyeQ4vlWiLwj62RSoNB3nJeEMlk6Dg9SxTteWz5QToLvcVREIV5rHMVxqMfv1g0YK5aXoPIFrP8fNWkO9ferVd+qj1THbdeooasOBZ+cDMLpR3Ju4vbScv66QXIttjtdosflTmodH0v83Lhyz+s0LuSoXVk+XLs5V0tZkk8DkJptcvI8N46cuxu27r1wrlc/j5SU1V+Tj77DAanp9ZDu5aOy6TTY9LZZdLpM+nsMensM+kcMOkcMuk4XS4hrhHtcA1ph2tMO1yD2uEa1Q7XsHa4xrXDNbAdrpHtco1sl22u5hrZLtfIdo1GtkjnNzfP3l1da0VLpG8gQ7aRmQzZQmYyZPuYyZB5byZDZr2ZDJnzZjJkxpvJkPluJkMvZIY6TOOYXsYMdZhGMr2IGeowjWV6CTPUYRrN9AJmqMM0nunly1CHa15mGs/02mWoU3883wVRZr5sXamP6uuQzWOoQzaPoQ7ZPIY6ZLob6pDpbqhDpruhDpnuhjpkuhvq0OuXqRDXiKZXMFMhrjFNr2GmQlyjml7FTIW4xjW9jpkKcY1seiUzFWKbq7lGNr2YmQrVH9mP/5lR+bJhapnrPvtDr3wbMYOFu3mL3uYtdjdv0d+8xd7mLfY3b3GweYvDzVs8W9k35dFAfjsNJLjTQIY7DaS400COOw0kudNAljsNpLnTQJ67DeS528Q63kCeuw3kubtenle+07FeWVW+9JHBgu4NNgu6M9gs6L5gs6CnXDYLesZls6AnXDYLer5ls6CnWzYLTVnF59FAfmvKKj6PBjJcU1bxeTSQ45qyis+jgSzXlFV8Hg3kuaas4vNoYh1vIM81ZRWfx3p5XvnqrHplVfluLQYLujfYLOjOYLOg+4LNgp5y2SzoGZfNgp5w2Szo+ZbNgp5u2Sw0NwTyedB3VPF50Ddb8XnQ92HxedC3aPF50Pcl8nnQtyzyedB3M/J50Dc68nk0kOea2yP5PBrIc81NlXweDazkmrJK51H5hpJ6ZVX5ChMGC7qsYrOgO4PNgu4LNgu6rGKzoMsqNgu6rGKzoMsqNgt6umWz0JRVfB70dMvnQU+3fB50WcXnQZdVfB50WcXnQZdVfB50WcXnQZdVfB4N5LmmrOLzaCDPNWUVn0cDK7mmrNJ5VG4EX6+sKneKZ7Cgyyo2C7oz2CzovmCzoMsqNgu6rGKzoMsqNgu6rGKzoKdbNgtNWcXnQU+3fB70dMvnQZdVfB50WcXnQZdVfB50WcXnQZdVfB50WcXn0UCea8oqPo8G8lxTVvF5NLCSa8oqnUflfrv1yqpyQ14GC7qsYrOgO4PNgu4LNgu6rGKzoMsqNgu6rGKzoMsqNgt6umWz0JRVfB70dMvnQU+3fB50WcXnQZdVfB50WcXnQZdVfB50WcXnQZdVfB4N5LmmrOLzaCDPNWUVn0cDK7mmrNJ5VG5rWK+sKvc9ZLCgyyo2C7oz2CzovmCzoMsqNgu6rGKzoMsqNgu6rGKzoKdbNgvtZmtcHrrdqrg8dBtZcXno9rji8tBtf8XlodvzjctDtx0cl4dupzguD90mclweDeS5dus5Lo8G8ly7YR2XRwMruaasWnl8r7PD63JHZ3EsInm32kG22Di2ld5O2sUOsJVbxa62hU5l9jaeR37a6nfbwnH6bdFTv7n9etvN3ucYj7td+/7Ay+QkThYn90Fabqv8eP019p7OBc4TXyZf5mqX49onKo7Fc46P0kvniSwx1EbNy3bf8L7fCCOMMMIII4wwwggjjDDCCCOMMMIII4wwwggjjDDCCCOMMMIII4wwwggjjDDCCCOMMMIII4wwwggjjDDCCCOMMMIII4wwwgj/pcILO76VSRL48qOnHqx17O7/+byqejQ2ff5o7IVMApkuH6+12qsHiGdhnNlhEMnKR2TTl57TrX6yNrWLV8/P4tDLgjjKoaw0k7POlRzHibTqPfn8QU5k5D+/oPKz1l63LXrqyeWuepBZ/bBCOc4UWIX0StYeTmR2GmWqfXKL8TwaFaStbfFHhcSKUD6efVn5LLc6grFoZdMgtdOiV+oZqePJSXbefqfeaNr6L7Cp2gpfPTqesy91h7M4DZTgu/zjOlezOpTMC1RJfGeGtMIKIl+qfOg4bcOzV8f1uieOAxmq8dZatmmZJ5Mkns+kL37+Wfxt+fm9PZx66fL5d5Vg20+jixejeYPY3mRypjzsUEaTbCreCFf8U1gnYWiJo+ffSMNgJFsdZ/uy+327Mt/+dCVxIlrX+aV0fxHXuc1yqC591Wd/z2cc8w5ShxrGS73L6+/2D7kQx8fHZeOtp1ioLrv92vRSV8dVIr0f65z8YHiO6fdVey2v7lgNazUYliOl2MjBHnppGkwi6Q/UFhHpZdGS39drylVHz+bptLVuX+RdelT25/qZFIZHda7SVt9c1yXNkviHrOdTfnddp3jmjYJsUc9q+eW1r6qwWFmtq7KaSJ5PK+ukh/Hko45VOj+feERHOKZqJulWn/WhXayqtb7/UFVTqGNnR3z+/av49/nvX8TF+Zevv336VXw4//W3gXh/+uW0nsBZPmvLe0+VaCKLRRonmYjmN/k4GIliS5NUeOkoL16CaFJDcdX2SufJyuy1xVX9ySWR2TyJxMxLUnkWxl7W8tSUv5135ZPProrPajVmdYn2xHZ5CVXCD5vd6eWx/izSvUj21pYvx948zMQsifM5TG61xdZPBweDwenp1oY3ngEOcIADHOAABzjAAQ5wgAOcvyaOSOc3+Z/AwpfqQ+F7C0WUSB80oAENaEADGtCABjSgAQ1oQKOnuStuzfofmqtwLoEDHOAABzjAAQ5wgAMc4AAHOOvgPL430FHvDbyYU+8N7DnF/7CdnOzuHh6CFKQgBSlIQQpSkIIUpCAFKUhBCtLXQeoWpF5GkXYL0l7PdQ/2QApSkIIUpCAFKUhBClKQghSkIAXp6yDtKdKzJCBI3cOC1HH293s9kIIUpCAFKUhBClKQghSkIAUpSEH6Okh3FenX6ZwiPShID/Oj/xakIAUpSEEKUpCCFKQgBSlIQQpSkL4O0r4i/Zf0KdL9gvTdu8Fgfx+kIAUpSEEKUpCCFKQgBSlIQQpSkL4O0r3iXybmkiLdK0gHg709kIIUpCAFKUhBClKQghSkIAUpSEH6Wkj3FenHmNpZ0O0XpAcHrtvvgxSkIAUpSEEKUpCCFKQgBSlIQQrSxkhXKH7i3bUqxe7tLMhCeTH1ZtLO5H3W2nofz5O0GmPx5zPfBTcySoM4CmVaKFRI7OyIE98XniiUxF2QTUUa30jh9yrOTG8ntjebychvWcrb2q44YXXYXpYlLeveaou9ruFJi/wkt/5JabYIZYnX8aLRNE7y861Qjg1olxrjOMo6dzKYTDOlcRWHfn2Nsm8uZp2P8zAbDsJ8jA7d4efYz39++zR0hmcfvgwdcbFIOz1xFiad/PfRtPNOvP8cjm6yThQneb98+yQ+nQ7eqq9l8kb0xOeLb+J8NFLf3drW9fSbnXSUBLPsH+R33uz4we3LYfIcWizXEoF/bI1UGgzylvOCSCZDx9m1RNGex5YfpLPQWxwFUZjHOldhPPrxi0UD5qrlNYhsMcvPV026c+3deuWn2jPVceslasiKY+EHN7NQ2pG8u7idtKyfXoBsi91ut/hRmYNK1/cyLxe+/MMKvSsZWkeWL8de3tVilsTjIJRWu4wM760jx+62rVsvnMvl7yM1VeXn5LPPYHB6aj20a+m4TDo9Jp1dJp0+k84ek84+k84Bk84hk47T5RLiGtEO15B2uMa0wzWoHa5R7XANa4drXDtcA9vhGtku18h22eZqrpHtco1s12hki3R+c/Ps3dW1VrRE+gYyZBuZyZAtZCZDto+ZDJn3ZjJk1pvJkDlvJkNmvJkMme9mMvRCZqjDNI7pZcxQh2kk04uYoQ7TWKaXMEMdptFML2CGOkzjmV6+DHW45mWm8UyvXYY69cfzXRBl5svWlfqovg7ZPIY6ZPMY6pDNY6hDpruhDpnuhjpkuhvqkOluqEOmu6EOvX6ZCnGNaHoFMxXiGtP0GmYqxDWq6VXMVIhrXNPrmKkQ18imVzJTIba5mmtk04uZqVD9kf34nxmVLxumlrnusz/0yrcRM1i4m7fobd5id/MW/c1b7G3eYn/zFgebtzjcvMWzlX1THg3kt9NAgjsNZLjTQIo7DeS400CSOw1kudNAmjsN5LnbQJ67TazjDeS520Ceu+vleeU7HeuVVeVLHxks6N5gs6A7g82C7gs2C3rKZbOgZ1w2C3rCZbOg51s2C3q6ZbPQlFV8Hg3kt6as4vNoIMM1ZRWfRwM5rimr+DwayHJNWcXn0UCea8oqPo8m1vEG8lxTVvF5rJfnla/OqldWle/WYrCge4PNgu4MNgu6L9gs6CmXzYKecdks6AmXzYKeb9ks6OmWzUJzQyCfB31HFZ8HfbMVnwd9HxafB32LFp8HfV8inwd9yyKfB303I58HfaMjn0cDea65PZLPo4E819xUyefRwEquKat0HpVvKKlXVpWvMGGwoMsqNgu6M9gs6L5gs6DLKjYLuqxis6DLKjYLuqxis6CnWzYLTVnF50FPt3we9HTL50GXVXwedFnF50GXVXwedFnF50GXVXwedFnF59FAnmvKKj6PBvJcU1bxeTSwkmvKKp1H5Ubw9cqqcqd4Bgu6rGKzoDuDzYLuCzYLuqxis6DLKjYLuqxis6DLKjYLerpls9CUVXwe9HTL50FPt3wedFnF50GXVXwedFnF50GXVXwedFnF50GXVXweDeS5pqzi82ggzzVlFZ9HAyu5pqzSeVTut1uvrCo35GWwoMsqNgu6M9gs6L5gs6DLKjYLuqxis6DLKjYLuqxis6CnWzYLTVnF50FPt3we9HTL50GXVXwedFnF50GXVXwedFnF50GXVXwedFnF59FAnmvKKj6PBvJcU1bxeTSwkmvKKp1H5baG9cqqct9DBgu6rGKzoDuDzYLuCzYLuqxis6DLKjYLuqxis6DLKjYLerpls9ButsblodutistDt5EVl4dujysuD932V1weuj3fuDx028Fxeeh2iuPy0G0ix+XRQJ5rt57j8mggz7Ub1nF5NLCSa8qqlcf3Oju8Lnd0FsciknerHWSLjWNb6e2kXewAW7lV7Gpb6FRmb+N55KetfrctHKffFj31m9uvt93sfY7xuNu17w+8TE7iZHFyH6TltsqP119j7+lc4DzxZfJlrnY5rn2i4lg85/govXSeyBJDbdS8bPcN7/uNMMIII4wwwggjjDDCCCOMMMIII4wwwggjjDDCCCOMMMIII4wwwggjjDDCCCOMMMIII4wwwggjjDDCCCOMMMIII4wwwggjjPBfKryw41uZJIEvP3rqwVrH7v6fz6uqR2PT54/GXsgkkOny8VqrvXqAeBbGmR0Gkax8RDZ96Tnd6idrU7t49fwsDr0siKMcykozOetcyXGcSKvek88f5ERG/vMLKj9r7XXboqeeXO6qB5nVDyuU40yBVUivZO3hRGanUabaJ7cYz6NRQdraFn9USKwI5ePZl5XPcqsjGItWNg1SOy16pZ6ROp6cZOftd+qNpq3/ApuqrfDVo+M5+1J3OIvTQAm+yz+uczWrQ8m8QJXEd2ZIK6wg8qXKh47TNjx7dVyve+I4kKEab61lm5Z5Mkni+Uz64uefxd+Wn9/bw6mXLp9/Vwm2/TS6eDGaN4jtTSZnysMOZTTJpuKNcMU/hXUShpY4ev6NNAxGstVxti+737cr8+1PVxInonWdX0r3F3Gd2yyH6tJXffb3fMYx7yB1qGG81Lu8/m7/kAtxfHxcNt56ioXqstuvTS91dVwl0vuxzskPhueYfl+11/LqjtWwVoNhOVKKjRzsoZemwSSS/kBtEZFeFi35fb2mXHX0bJ5OW+v2Rd6lR2V/rp9JYXhU5ypt9c11XdIsiX/Iej7ld9d1imfeKMgW9ayWX177qgqLldW6KquJ5Pm0sk56GE8+6lil8/OJR3SEY6pmkm71WR/axapa6/sPVTWFOnZ2xOffv4p/n//+RVycf/n626dfxYfzX38biPenX07rCZzls7a891SJJrJYpHGSiWh+k4+DkSi2NEmFl47y4iWIJjUUV22vdJ6szF5bXNWfXBKZzZNIzLwklWdh7GUtT03523lXPvnsqvisVmNWl2hPbJeXUCX8sNmdXh7rzyLdi2Rvbfly7M3DTMySOJ/D5FZbbP10cDAYnJ5ubXjjGeAABzjAAQ5wgAMc4AAHOMD5a+KIdH6T/wksfKk+FL63UESJ9EEDGtCABjSgAQ1oQAMa0IAGNHqau+LWrP+huQrnEjjAAQ5wgAMc4AAHOMABDnCAsw7O43sDHfXewIs59d7AnlP8D9vJye7u4SFIQQpSkIIUpCAFKUhBClKQghSkIH0dpG5B6mUUabcg7fVc92APpCAFKUhBClKQghSkIAUpSEEKUpC+DtKeIj1LAoLUPSxIHWd/v9cDKUhBClKQghSkIAUpSEEKUpCCFKSvg3RXkX6dzinSg4L0MD/6b0EKUpCCFKQgBSlIQQpSkIIUpCAF6esg7SvSf0mfIt0vSN+9Gwz290EKUpCCFKQgBSlIQQpSkIIUpCAF6esg3Sv+ZWIuKdK9gnQw2NsDKUhBClKQghSkIAUpSEEKUpCCFKSvhXRfkX6MqZ0F3X5BenDguv0+SEEKUpCCFKQgBSlIQQpSkIIUpCBtjHSF4ifeXatS7N7OgiyUF1NvJu1M3metrffxPEmrMRZ/PvNdcCOjNIijUKaFQoXEzo448X3hiUJJ3AXZVKTxjRR+r+LM9HZie7OZjPyWpbyt7YoTVoftZVnSsu6tttjrGp60yE9y65+UZotQlngdLxpN4yQ/3wrl2IB2qTGOo6xzJ4PJNFMaV3Ho19co++Zi1vk4D7PhIMzH6NAdfo79YW/47dPQGZ59+DJ0xMUi7fTEWZh08t9H08478f5zOLrJOlGc5P3y7ZP4dDp4q76WyRvRE58vvonz0Uh9d2tb19NvdtJREsyyf5DfebPjB7cvh8lzaLFcSwT+sTVSaTDIW84LIpkMHadviaI9jy0/SGehtzgKojCPda7CePTjF4sGzFXLaxDZYpafr5p059q79cpPtWeq49ZL1JAVx8IPbmahtCN5d3E7aVk/vQDZFrvdbvGjMgeVru9lXi58+YcVelcytI4sX469vKvFLInHQSitdhkZ3ltHjt1tW7deOJfL30dqqsrPyWefweD01Hpo19JxmXR6TDq7TDp9Jp09Jp19Jp0DJp1DJh2nyyXENaIdriHtcI1ph2tQO1yj2uEa1g7XuHa4BrbDNbJdrpHtss3VXCPb5RrZrtHIFun85ubZu6trrWiJ9A1kyDYykyFbyEyGbB8zGTLvzWTIrDeTIXPeTIbMeDMZMt/NZOiFzFCHaRzTy5ihDtNIphcxQx2msUwvYYY6TKOZXsAMdZjGM718GepwzctM45leuwx16o/nuyDKzJetK/VRfR2yeQx1yOYx1CGbx1CHTHdDHTLdDXXIdDfUIdPdUIdMd0Mdev0yFeIa0fQKZirENabpNcxUiGtU06uYqRDXuKbXMVMhrpFNr2SmQmxzNdfIphczU6H6I/vxPzMqXzZMLXPdZ3/olW8jZrBwN2/R27zF7uYt+pu32Nu8xf7mLQ42b3G4eYtnK/umPBrIb6eBBHcayHCngRR3Gshxp4EkdxrIcqeBNHcayHO3gTx3m1jHG8hzt4E8d9fL88p3OtYrq8qXPjJY0L3BZkF3BpsF3RdsFvSUy2ZBz7hsFvSEy2ZBz7dsFvR0y2ahKav4PBrIb01ZxefRQIZryio+jwZyXFNW8Xk0kOWasorPo4E815RVfB5NrOMN5LmmrOLzWC/PK1+dVa+sKt+txWBB9wabBd0ZbBZ0X7BZ0FMumwU947JZ0BMumwU937JZ0PdGsVlobgjk86DvqOLzoG+24vOg78Pi86Bv0eLzoO9L5POgb1nk86DvZuTzoG905PNoIM81ZRWfRxPreAMLuaas4vNYbymvfENJvbKqfIUJgwXdG2wWdGewWdB9wWZBl1VsFnRZxWZBl1VsFnRZxWZBT7dsFpqyis+DLqv4POiyis+DLqv4POiyis+DLqv4POiyis+DLqv4POiyis+jgTzXlFV8Hk2s4w0s5Jqyis9jvaW8ciP4emVVuVM8gwXdG2wWdGewWdB9wWZBl1VsFnRZxWZBl1VsFnRZxWZBT7dsFpqyis+DLqv4POiyis+DLqv4POiyis+DLqv4POiyis+DLqv4POiyis+jgTzXlFV8Hk2s4w0s5Jqyis9jvaW8cr/demVVuSEvgwXdG2wWdGewWdB9wWZBl1VsFnRZxWZBl1VsFnRZxWZBT7dsFpqyis+DLqv4POiyis+DLqv4POiyis+DLqv4POiyis+DLqv4POiyis+jgTzXlFV8Hk2s4w0s5Jqyis9jvaW8clvDemVVue8hgwXdG2wWdGewWdB9wWZBl1VsFnRZxWZBl1VsFnRZxWah23eKyUK72RqXh263Ki4P3UZWXB66Pa64PHTbX3F56PZ84/LQbQfH5aHbKY7LQ7eJHJdHA3muKav4PJpYxxtYyDVlFZ9H9VL+vc4Or8sdncWxiOTdagfZYuPYVno7aRc7wFZuFbvaFjqV2dt4Hvlpq99tC8fpt0VP/eb26203e59jPO527fsDL5OTOFmc3Adpua3y4/XX2Hs6FzhPfJl8matdjmufqDgWzzk+Si+dJ7LEUBs1L9t9w/t+I4wwwggjjDDCCCOMMMIII4wwwggjjDDCCCOMMMIII4wwwggjjDDCCCOMMMIII4wwwggjjDDCCCOMMMIII4wwwggjjDDCCCP8lwov7PhWJkngy4+eerDWsbv/5/Oq6tHY9PmjsRcyCWS6fLzWaq8eIJ6FcWaHQSQrH5FNX3pOt/rJ2tQuXj0/i0MvC+Ioh7LSTM46V3IcJ9Kq9+TzBzmRkf/8gsrPWnvdtuipJ5e76kFm9cMK5ThTYBXSK1l7OJHZaZSp9sktxvNoVJC2tsUfFRIrQvl49mXls9zqCMailU2D1E6LXqlnpI4nJ9l5+516o2nrv8Cmait89eh4zr7UHc7iNFCC7/KP61zN6lAyL1Al8Z0Z0goriHyp8qHjtA3PXh3X6544DmSoxltr2aZlnkySeD6Tvvj5Z/G35ef39nDqpcvn31WCbT+NLl6M5g1ie5PJmfKwQxlNsql4I1zxT2GdhKEljp5/Iw2DkWx1nO3L7vftynz705XEiWhd55fS/UVc5zbLobr0VZ/9PZ9xzDtIHWoYL/Uur7/bP+RCHB8fl423nmKhuuz2a9NLXR1XifR+rHPyg+E5pt9X7bW8umM1rNVgWI6UYiMHe+ilaTCJpD9QW0Skl0VLfl+vKVcdPZun09a6fZF36VHZn+tnUhge1blKW31zXZc0S+Ifsp5P+d11neKZNwqyRT2r5ZfXvqrCYmW1rspqInk+rayTHsaTjzpW6fx84hEd4ZiqmaRbfdaHdrGq1vr+Q1VNoY6dHfH596/i3+e/fxEX51++/vbpV/Hh/NffBuL96ZfTegJn+awt7z1VooksFmmcZCKa3+TjYCSKLU1S4aWjvHgJokkNxVXbK50nK7PXFlf1J5dEZvMkEjMvSeVZGHtZy1NT/nbelU8+uyo+q9WY1SXaE9vlJVQJP2x2p5fH+rNI9yLZW1u+HHvzMBOzJM7nMLnVFls/HRwMBqenWxveeAY4wAEOcIADHOAABzjAAQ5w/po4Ip3f5H8CC1+qD4XvLRRRIn3QgAY0oAENaEADGtCABjSgAY2e5q64Net/aK7CuQQOcIADHOAABzjAAQ5wgAMc4KyD8/jeQEe9N/BiTr03sOcU/8N2crK7e3gIUpCCFKQgBSlIQQpSkIIUpCAFKUhfB6lbkHoZRdotSHs91z3YAylIQQpSkIIUpCAFKUhBClKQghSkr4O0p0jPkoAgdQ8LUsfZ3+/1QApSkIIUpCAFKUhBClKQghSkIAXp6yDdVaRfp3OK9KAgPcyP/luQghSkIAUpSEEKUpCCFKQgBSlIQfo6SPuK9F/Sp0j3C9J37waD/X2QghSkIAUpSEEKUpCCFKQgBSlIQfo6SPeKf5mYS4p0ryAdDPb2QApSkIIUpCAFKUhBClKQghSkIAXpayHdV6QfY2pnQbdfkB4cuG6/D1KQghSkIAUpSEEKUpCCFKQgBSlIGyNdofiJd9eqFLu3syAL5cXUm0k7k/dZa+t9PE/SaozFn898F9zIKA3iKJRpoVAhsbMjTnxfeKJQEndBNhVpfCOF36s4M72d2N5sJiO/ZSlva7vihNVhe1mWtKx7qy32uoYnLfKT3PonpdkilCVex4tG0zjJz7dCOTagXWqM4yjr3MlgMs2UxlUc+vU1yr65mHXOx+NgJNPht09DZ3j24cvQEReLtNMTZ2HSyX8fTTsn4v3ncHSTdaSXZuLbJ/HpdPBWfSuTN6InPl98E+ejkfrq1raud9/spKMkmGX/IL/zZscPbl8Ok+fQYrmWCPxja6SG/iBvLS+IZDJ0nD1LFG14bPlBOgu9xVEQhXmscxXGox+/WDRgrlpeg8gWs/x81Yw7196tV36qPVMdt16ihqk4Fn5wMwulHcm7i9tJy/rpBci22O12ix+Vead0fS/zcuHLP6zQu5KhdWT5cuzNw0zMkngchNJql5HhvXXk2N22deuFc2kd7R3ah0+Og8O2NVKTVa6Qzz+Dwemp9dCupepuRLW3EdXdjaj2N6K6txHV/Y2oHmxE9XAjqk53M7KbyS5nM+nlbCa/nM0kmLOZDHM2k2LOZnLM2UySOZvJMnczWeZuaA3bTJa5m8ky9//IMpHOb26evf97jQohkb6BaM22NROt2bJmojXb1Uy05txlJlpz5jITrTlvmYnWnLX+084Z9bZtQ1H4fb+Cy0MhY45qOUuzZfOGrE3aAu0ypCmGIQgC2aJtJYpkiHITY8h/nyhTnp1E86VINTF2+FC7pnT4kbqXJEr16IkS5yw9UerGQFO1kZyibgs0VRvJKuqmQFO1kbyibgk0VRvJLOqGQFO1kdyibgc0VZtZrxrJLepeQFO1bm7dhHFmug3oywvoqsRh1VQlDqumKnFYNVWJU5amKnHK0lQlTlmaqsQpS1OVOGVpqlL3A7qyzWQXdUegK9tMflH3BLqyzWQYdVegK9tMjlH3BbqyzWQZdWegK9vQGtZMllE3B7qyWll2TjlwUIeKrMdiflMeaBTnGI74MmoXBxJrTy7Kk0nBs9+SaRwIZ7fTZp6322Y78lt3l3b6cZtjLA5cg+C1n/FRks4ObkMxP9lbDAXh+DMXOE4Dnp5M5UEb+UbJMVvl+Mh9MU35HEOeFapHYHqgWxwkrTb1iachFwo3b0k9kEmUZK483VrbpHis3+tJhVvE3SSJ/CxM4hxqS2R8st3nwyTlW7RI+sBHPA5WOzT/zXmVR8GOjAR5GObJP9R56dqj5FLWvRjx7DDO5PjkTQyn8aAgdVrsb8KBqSTki7vP1uaGLOGQOdk4FHlcy/toDcmydJObj9+hPxg7/wLrqpX46mxQ6V5MEhFKwTf5z5TelEXKPEKVJjd6SCVWGAdcJu6219a8uyyXdW8chjyS8eaoMZ3nyShNphMesBcv2Lfq91v3YuwLNZ/IBGst184erc0HxPVHoyPZhhvxeJSN2c+sy35lWwdRtMX2V68QUTjgzrbXOuuct9bm24OeJClzLvOudH5il3kzKlRVu/K373rM039AssgwVnpnl+fuFc+nt15vPnj1FAtV9dgvdbtaln7K/as6N99p3qN7vRwv1bueDGsZDCpSioXRvZi/DMSD4nUgcVaM5Hm9oSwf9GQqxk7dZ5E/0v3586yfSVG0T+mlK6+s24rI0uSK09qZX1u3pWTiD8JsRmtKXVy7V0UTZVN1VcqJZHVaqZMe2pOPLGU6r048bJt5umo66UZnvWsXqyrp+rt1ewpZXr5kf3w+ZX8dfz5hn45PTt///pZ9OH77/jV7d3hySBM4ymdtfuvLLRrLEiaSfCMdT6/zOBiwYosomC8G+eYljEcExXLspc7Syuy3WZ8+uaQ8m6Yxm/ip4EdR4meOL6f8Vv4ol37rF7+RBnP9Fm2pWdWFdcJ3T/DS5r0DWPVmpjxQfZJ3SIEDHOAABzjAAQ5wgAMc4ABn43EevuAiiVIegAY0oAENaEADGtCABjSgAQ1o/pvmwSuBkka+4gcc4AAHOMABDnCAAxzgAAc4wHlCq8RTfj3hqZ9NU86coxbMEp+VWeKfvoy4d7z4OLjuhzzOmHxk0vmQB9N8/LfZXudoQ0wQ9zbBBHHvq5kgFv/1tK4JkyWdHUs631vS2bWk88qSzp4lnR8s6fxoSWfFXcBIyFZEe7ZC2rMV056toPZsRbVnK6w9W3Ht2Qpsz1Zkd21FdtfaXG0rsru2IrurFdl0074Vqfo2fQYylSNU34rPQKYy7+vb7RnIVOZ8fUs9A5nKfDewzTPRsRTH1cuYgRmeiY6lUK5ewwws7kx0LEVz9QJmYFxnMg9aiufq1cvAjs5Ex1I8Vy9d9U3mVmQMbOVMdCqHx8A6zkSnMt0N7OFMdCrT3cACzkSnMt1NbN6MhGxFdPUKZmLeZiRkK6irFzETSzYjIVtxXb2OmRitGc2MtiK7eikzsU8zErIV2dWrGUzRNsIUDdWoRjWqUY1qVKMa1ahGNapRjWpUoxrVz6l65iZfeJqGAf/oy3+o8twOTPGXegJT/EWBKb5WgSk+TPE1Ckzx7xeY4t8vMMXXLDDFhyn+owWm+MABDnCAAxzgAAc4wAEOcIADnE2wlAQNaEADGtCABjSgAQ1oQAOazaH531hZAgc4wAEOcIADHOAABzjAAU799p7AFP9NeM1jESZxxIWAJf7zssRP0it2OByGg5DHg9nCCP/rWuCrq+/VLP+9/D7/XKirL4uPfhLM5Oc4u45++eYfLVpY5w=="
               },
               {
                  "name" : "annual_peak_electric_demand",
                  "units" : "kW",
                  "value" : 905.67667000000006
               },
               {
                  "name" : "first_year_capital_cost",
                  "units" : "$",
                  "value" : 0
               },
               {
                  "name" : "annual_utility_cost",
                  "units" : "$",
                  "value" : 0
               },
               {
                  "name" : "total_lifecycle_cost",
                  "units" : "$",
                  "value" : 0
               }
            ],
            "step_warnings" : [ "A table in Annual Overview section returned false and was skipped." ]
         }
      }
   ],
   "updated_at" : "20170710T191907Z",
   "weather_file" : "USA_CO_Denver.Intl.AP.725650_TMY3.epw"
}
