{
   "completed_at" : "20170710T194857Z",
   "completed_status" : "Success",
   "created_at" : "2017-07-10 19:32:54 +0000",
   "current_step" : 5,
   "description" : "",
   "eplusout_err" : "Program Version,EnergyPlus, Version 8.7.0-78a111df4a, YMD=2017.07.10 19:43,IDD_Version 8.7.0\n   ************* IDF Context for following error/warning message:\n   ************* Note -- lines truncated at 300 characters, if necessary...\n   *************      5 Building,\n   ************* indicated Name=NECB 2011-Hospital-NECB HDD Method-CAN_SK_Swift.Current.718700_CWEC.epw created: 2017-07-10 19:33:04 +0000\n   ************* Only last 1 lines before error line shown.....\n   *************      6   NECB 2011-Hospital-NECB HDD Method-CAN_SK_Swift.Current.718700_CWEC.epw created: 2017-07-10 19:33:04 +0000, !- Name\n   ** Warning ** IP: IDF line~6 Alpha Argument length exceeds maximum, will be truncated=  NECB 2011-Hospital-NECB HDD Method-CAN_SK_Swift.Current.718700_CWEC.epw created: 2017-07-10 19:33:04 +000\n   **   ~~~   ** Will be processed as Alpha=NECB 2011-HOSPITAL-NECB HDD METHOD-CAN_SK_SWIFT.CURRENT.718700_CWEC.EPW CREATED: 2017-07-10 19:33:04 +0000\n   ************* IDF Context for following error/warning message:\n   ************* Note -- lines truncated at 300 characters, if necessary...\n   *************   5098 Schedule:Week:Daily,\n   ************* indicated Name=Schedule:Week:Daily {ae66f4da-50c4-47a5-bf4b-8849fcd17e6b}\n   ************* Only last 10 lines before error line shown.....\n   *************   5099   Schedule:Week:Daily {ae66f4da-50c4-47a5-bf4b-8849fcd17e6b}, !- Name\n   *************   5100   Sp-ER_Exam1_Mult4_Flr_1 Sys-3 Flr-1 Sch-H HPlcmt-south ZN NECB System 3 PSZ Occ Sch Sunday, !- Sunday Schedule:Day Name\n   *************   5101   Sp-ER_Exam1_Mult4_Flr_1 Sys-3 Flr-1 Sch-H HPlcmt-south ZN NECB System 3 PSZ Occ Sch Monday, !- Monday Schedule:Day Name\n   *************   5102   Sp-ER_Exam1_Mult4_Flr_1 Sys-3 Flr-1 Sch-H HPlcmt-south ZN NECB System 3 PSZ Occ Sch Tuesday, !- Tuesday Schedule:Day Name\n   *************   5103   Sp-ER_Exam1_Mult4_Flr_1 Sys-3 Flr-1 Sch-H HPlcmt-south ZN NECB System 3 PSZ Occ Sch Wednesday, !- Wednesday Schedule:Day Name\n   *************   5104   Sp-ER_Exam1_Mult4_Flr_1 Sys-3 Flr-1 Sch-H HPlcmt-south ZN NECB System 3 PSZ Occ Sch Thursday, !- Thursday Schedule:Day Name\n   *************   5105   Sp-ER_Exam1_Mult4_Flr_1 Sys-3 Flr-1 Sch-H HPlcmt-south ZN NECB System 3 PSZ Occ Sch Friday, !- Friday Schedule:Day Name\n   *************   5106   Sp-ER_Exam1_Mult4_Flr_1 Sys-3 Flr-1 Sch-H HPlcmt-south ZN NECB System 3 PSZ Occ Sch Saturday, !- Saturday Schedule:Day Name\n   *************   5107   Sp-ER_Exam1_Mult4_Flr_1 Sys-3 Flr-1 Sch-H HPlcmt-south ZN NECB System 3 PSZ Occ Sch Default, !- Holiday Schedule:Day Name\n   *************   5108   Sp-ER_Exam1_Mult4_Flr_1 Sys-3 Flr-1 Sch-H HPlcmt-south ZN NECB System 3 PSZ Occ Sch Summer Design Day, !- SummerDesignDay Schedule:Day Name\n   ** Warning ** IP: IDF line~5108 Alpha Argument length exceeds maximum, will be truncated=  Sp-ER_Exam1_Mult4_Flr_1 Sys-3 Flr-1 Sch-H HPlcmt-south ZN NECB System 3 PSZ Occ Sch Summer Design Da\n   **   ~~~   ** Will be processed as Alpha=SP-ER_EXAM1_MULT4_FLR_1 SYS-3 FLR-1 SCH-H HPLCMT-SOUTH ZN NECB SYSTEM 3 PSZ OCC SCH SUMMER DESIGN DAY\n   ************* IDF Context for following error/warning message:\n   ************* Note -- lines truncated at 300 characters, if necessary...\n   *************   5098 Schedule:Week:Daily,\n   ************* indicated Name=Schedule:Week:Daily {ae66f4da-50c4-47a5-bf4b-8849fcd17e6b}\n   ************* Only last 10 lines before error line shown.....\n   *************   5100   Sp-ER_Exam1_Mult4_Flr_1 Sys-3 Flr-1 Sch-H HPlcmt-south ZN NECB System 3 PSZ Occ Sch Sunday, !- Sunday Schedule:Day Name\n   *************   5101   Sp-ER_Exam1_Mult4_Flr_1 Sys-3 Flr-1 Sch-H HPlcmt-south ZN NECB System 3 PSZ Occ Sch Monday, !- Monday Schedule:Day Name\n   *************   5102   Sp-ER_Exam1_Mult4_Flr_1 Sys-3 Flr-1 Sch-H HPlcmt-south ZN NECB System 3 PSZ Occ Sch Tuesday, !- Tuesday Schedule:Day Name\n   *************   5103   Sp-ER_Exam1_Mult4_Flr_1 Sys-3 Flr-1 Sch-H HPlcmt-south ZN NECB System 3 PSZ Occ Sch Wednesday, !- Wednesday Schedule:Day Name\n   *************   5104   Sp-ER_Exam1_Mult4_Flr_1 Sys-3 Flr-1 Sch-H HPlcmt-south ZN NECB System 3 PSZ Occ Sch Thursday, !- Thursday Schedule:Day Name\n   *************   5105   Sp-ER_Exam1_Mult4_Flr_1 Sys-3 Flr-1 Sch-H HPlcmt-south ZN NECB System 3 PSZ Occ Sch Friday, !- Friday Schedule:Day Name\n   *************   5106   Sp-ER_Exam1_Mult4_Flr_1 Sys-3 Flr-1 Sch-H HPlcmt-south ZN NECB System 3 PSZ Occ Sch Saturday, !- Saturday Schedule:Day Name\n   *************   5107   Sp-ER_Exam1_Mult4_Flr_1 Sys-3 Flr-1 Sch-H HPlcmt-south ZN NECB System 3 PSZ Occ Sch Default, !- Holiday Schedule:Day Name\n   *************   5108   Sp-ER_Exam1_Mult4_Flr_1 Sys-3 Flr-1 Sch-H HPlcmt-south ZN NECB System 3 PSZ Occ Sch Summer Design Day, !- SummerDesignDay Schedule:Day Name\n   *************   5109   Sp-ER_Exam1_Mult4_Flr_1 Sys-3 Flr-1 Sch-H HPlcmt-south ZN NECB System 3 PSZ Occ Sch Winter Design Day, !- WinterDesignDay Schedule:Day Name\n   ** Warning ** IP: IDF line~5109 Alpha Argument length exceeds maximum, will be truncated=  Sp-ER_Exam1_Mult4_Flr_1 Sys-3 Flr-1 Sch-H HPlcmt-south ZN NECB System 3 PSZ Occ Sch Winter Design Da\n   **   ~~~   ** Will be processed as Alpha=SP-ER_EXAM1_MULT4_FLR_1 SYS-3 FLR-1 SCH-H HPLCMT-SOUTH ZN NECB SYSTEM 3 PSZ OCC SCH WINTER DESIGN DAY\n   ************* IDF Context for following error/warning message:\n   ************* Note -- lines truncated at 300 characters, if necessary...\n   *************   5129 Schedule:Day:Interval,\n   ************* indicated Name=Sp-ER_Exam1_Mult4_Flr_1 Sys-3 Flr-1 Sch-H HPlcmt-south ZN NECB System 3 PSZ Occ Sch Summer Design Day\n   ************* Only last 1 lines before error line shown.....\n   *************   5130   Sp-ER_Exam1_Mult4_Flr_1 Sys-3 Flr-1 Sch-H HPlcmt-south ZN NECB System 3 PSZ Occ Sch Summer Design Day, !- Name\n   ** Warning ** IP: IDF line~5130 Alpha Argument length exceeds maximum, will be truncated=  Sp-ER_Exam1_Mult4_Flr_1 Sys-3 Flr-1 Sch-H HPlcmt-south ZN NECB System 3 PSZ Occ Sch Summer Design Da\n   **   ~~~   ** Will be processed as Alpha=SP-ER_EXAM1_MULT4_FLR_1 SYS-3 FLR-1 SCH-H HPLCMT-SOUTH ZN NECB SYSTEM 3 PSZ OCC SCH SUMMER DESIGN DAY\n   ************* IDF Context for following error/warning message:\n   ************* Note -- lines truncated at 300 characters, if necessary...\n   *************   5136 Schedule:Day:Interval,\n   ************* indicated Name=Sp-ER_Exam1_Mult4_Flr_1 Sys-3 Flr-1 Sch-H HPlcmt-south ZN NECB System 3 PSZ Occ Sch Winter Design Day\n   ************* Only last 1 lines before error line shown.....\n   *************   5137   Sp-ER_Exam1_Mult4_Flr_1 Sys-3 Flr-1 Sch-H HPlcmt-south ZN NECB System 3 PSZ Occ Sch Winter Design Day, !- Name\n   ** Warning ** IP: IDF line~5137 Alpha Argument length exceeds maximum, will be truncated=  Sp-ER_Exam1_Mult4_Flr_1 Sys-3 Flr-1 Sch-H HPlcmt-south ZN NECB System 3 PSZ Occ Sch Winter Design Da\n   **   ~~~   ** Will be processed as Alpha=SP-ER_EXAM1_MULT4_FLR_1 SYS-3 FLR-1 SCH-H HPLCMT-SOUTH ZN NECB SYSTEM 3 PSZ OCC SCH WINTER DESIGN DAY\n   ************* IDF Context for following error/warning message:\n   ************* Note -- lines truncated at 300 characters, if necessary...\n   *************   5892 Schedule:Week:Daily,\n   ************* indicated Name=Schedule:Week:Daily {6725f614-6f32-4904-99d0-fdee4ed86036}\n   ************* Only last 10 lines before error line shown.....\n   *************   5893   Schedule:Week:Daily {6725f614-6f32-4904-99d0-fdee4ed86036}, !- Name\n   *************   5894   Sp-ER_NurseStn_Lobby_Flr_1 Sys-3 Flr-1 Sch-H HPlcmt-east ZN NECB System 3 PSZ Occ Sch Sunday, !- Sunday Schedule:Day Name\n   *************   5895   Sp-ER_NurseStn_Lobby_Flr_1 Sys-3 Flr-1 Sch-H HPlcmt-east ZN NECB System 3 PSZ Occ Sch Monday, !- Monday Schedule:Day Name\n   *************   5896   Sp-ER_NurseStn_Lobby_Flr_1 Sys-3 Flr-1 Sch-H HPlcmt-east ZN NECB System 3 PSZ Occ Sch Tuesday, !- Tuesday Schedule:Day Name\n   *************   5897   Sp-ER_NurseStn_Lobby_Flr_1 Sys-3 Flr-1 Sch-H HPlcmt-east ZN NECB System 3 PSZ Occ Sch Wednesday, !- Wednesday Schedule:Day Name\n   *************   5898   Sp-ER_NurseStn_Lobby_Flr_1 Sys-3 Flr-1 Sch-H HPlcmt-east ZN NECB System 3 PSZ Occ Sch Thursday, !- Thursday Schedule:Day Name\n   *************   5899   Sp-ER_NurseStn_Lobby_Flr_1 Sys-3 Flr-1 Sch-H HPlcmt-east ZN NECB System 3 PSZ Occ Sch Friday, !- Friday Schedule:Day Name\n   *************   5900   Sp-ER_NurseStn_Lobby_Flr_1 Sys-3 Flr-1 Sch-H HPlcmt-east ZN NECB System 3 PSZ Occ Sch Saturday, !- Saturday Schedule:Day Name\n   *************   5901   Sp-ER_NurseStn_Lobby_Flr_1 Sys-3 Flr-1 Sch-H HPlcmt-east ZN NECB System 3 PSZ Occ Sch Default, !- Holiday Schedule:Day Name\n   *************   5902   Sp-ER_NurseStn_Lobby_Flr_1 Sys-3 Flr-1 Sch-H HPlcmt-east ZN NECB System 3 PSZ Occ Sch Summer Design Day, !- SummerDesignDay Schedule:Day Name\n   ** Warning ** IP: IDF line~5902 Alpha Argument length exceeds maximum, will be truncated=  Sp-ER_NurseStn_Lobby_Flr_1 Sys-3 Flr-1 Sch-H HPlcmt-east ZN NECB System 3 PSZ Occ Sch Summer Design Da\n   **   ~~~   ** Will be processed as Alpha=SP-ER_NURSESTN_LOBBY_FLR_1 SYS-3 FLR-1 SCH-H HPLCMT-EAST ZN NECB SYSTEM 3 PSZ OCC SCH SUMMER DESIGN DAY\n   ************* IDF Context for following error/warning message:\n   ************* Note -- lines truncated at 300 characters, if necessary...\n   *************   5892 Schedule:Week:Daily,\n   ************* indicated Name=Schedule:Week:Daily {6725f614-6f32-4904-99d0-fdee4ed86036}\n   ************* Only last 10 lines before error line shown.....\n   *************   5894   Sp-ER_NurseStn_Lobby_Flr_1 Sys-3 Flr-1 Sch-H HPlcmt-east ZN NECB System 3 PSZ Occ Sch Sunday, !- Sunday Schedule:Day Name\n   *************   5895   Sp-ER_NurseStn_Lobby_Flr_1 Sys-3 Flr-1 Sch-H HPlcmt-east ZN NECB System 3 PSZ Occ Sch Monday, !- Monday Schedule:Day Name\n   *************   5896   Sp-ER_NurseStn_Lobby_Flr_1 Sys-3 Flr-1 Sch-H HPlcmt-east ZN NECB System 3 PSZ Occ Sch Tuesday, !- Tuesday Schedule:Day Name\n   *************   5897   Sp-ER_NurseStn_Lobby_Flr_1 Sys-3 Flr-1 Sch-H HPlcmt-east ZN NECB System 3 PSZ Occ Sch Wednesday, !- Wednesday Schedule:Day Name\n   *************   5898   Sp-ER_NurseStn_Lobby_Flr_1 Sys-3 Flr-1 Sch-H HPlcmt-east ZN NECB System 3 PSZ Occ Sch Thursday, !- Thursday Schedule:Day Name\n   *************   5899   Sp-ER_NurseStn_Lobby_Flr_1 Sys-3 Flr-1 Sch-H HPlcmt-east ZN NECB System 3 PSZ Occ Sch Friday, !- Friday Schedule:Day Name\n   *************   5900   Sp-ER_NurseStn_Lobby_Flr_1 Sys-3 Flr-1 Sch-H HPlcmt-east ZN NECB System 3 PSZ Occ Sch Saturday, !- Saturday Schedule:Day Name\n   *************   5901   Sp-ER_NurseStn_Lobby_Flr_1 Sys-3 Flr-1 Sch-H HPlcmt-east ZN NECB System 3 PSZ Occ Sch Default, !- Holiday Schedule:Day Name\n   *************   5902   Sp-ER_NurseStn_Lobby_Flr_1 Sys-3 Flr-1 Sch-H HPlcmt-east ZN NECB System 3 PSZ Occ Sch Summer Design Day, !- SummerDesignDay Schedule:Day Name\n   *************   5903   Sp-ER_NurseStn_Lobby_Flr_1 Sys-3 Flr-1 Sch-H HPlcmt-east ZN NECB System 3 PSZ Occ Sch Winter Design Day, !- WinterDesignDay Schedule:Day Name\n   ** Warning ** IP: IDF line~5903 Alpha Argument length exceeds maximum, will be truncated=  Sp-ER_NurseStn_Lobby_Flr_1 Sys-3 Flr-1 Sch-H HPlcmt-east ZN NECB System 3 PSZ Occ Sch Winter Design Da\n   **   ~~~   ** Will be processed as Alpha=SP-ER_NURSESTN_LOBBY_FLR_1 SYS-3 FLR-1 SCH-H HPLCMT-EAST ZN NECB SYSTEM 3 PSZ OCC SCH WINTER DESIGN DAY\n   ************* IDF Context for following error/warning message:\n   ************* Note -- lines truncated at 300 characters, if necessary...\n   *************   5923 Schedule:Day:Interval,\n   ************* indicated Name=Sp-ER_NurseStn_Lobby_Flr_1 Sys-3 Flr-1 Sch-H HPlcmt-east ZN NECB System 3 PSZ Occ Sch Summer Design Day\n   ************* Only last 1 lines before error line shown.....\n   *************   5924   Sp-ER_NurseStn_Lobby_Flr_1 Sys-3 Flr-1 Sch-H HPlcmt-east ZN NECB System 3 PSZ Occ Sch Summer Design Day, !- Name\n   ** Warning ** IP: IDF line~5924 Alpha Argument length exceeds maximum, will be truncated=  Sp-ER_NurseStn_Lobby_Flr_1 Sys-3 Flr-1 Sch-H HPlcmt-east ZN NECB System 3 PSZ Occ Sch Summer Design Da\n   **   ~~~   ** Will be processed as Alpha=SP-ER_NURSESTN_LOBBY_FLR_1 SYS-3 FLR-1 SCH-H HPLCMT-EAST ZN NECB SYSTEM 3 PSZ OCC SCH SUMMER DESIGN DAY\n   ************* IDF Context for following error/warning message:\n   ************* Note -- lines truncated at 300 characters, if necessary...\n   *************   5930 Schedule:Day:Interval,\n   ************* indicated Name=Sp-ER_NurseStn_Lobby_Flr_1 Sys-3 Flr-1 Sch-H HPlcmt-east ZN NECB System 3 PSZ Occ Sch Winter Design Day\n   ************* Only last 1 lines before error line shown.....\n   *************   5931   Sp-ER_NurseStn_Lobby_Flr_1 Sys-3 Flr-1 Sch-H HPlcmt-east ZN NECB System 3 PSZ Occ Sch Winter Design Day, !- Name\n   ** Warning ** IP: IDF line~5931 Alpha Argument length exceeds maximum, will be truncated=  Sp-ER_NurseStn_Lobby_Flr_1 Sys-3 Flr-1 Sch-H HPlcmt-east ZN NECB System 3 PSZ Occ Sch Winter Design Da\n   **   ~~~   ** Will be processed as Alpha=SP-ER_NURSESTN_LOBBY_FLR_1 SYS-3 FLR-1 SCH-H HPLCMT-EAST ZN NECB SYSTEM 3 PSZ OCC SCH WINTER DESIGN DAY\n   ************* IDF Context for following error/warning message:\n   ************* Note -- lines truncated at 300 characters, if necessary...\n   *************   6693 Schedule:Week:Daily,\n   ************* indicated Name=Schedule:Week:Daily {0385c5f5-08b7-4433-97ea-6c8568e4fcd4}\n   ************* Only last 10 lines before error line shown.....\n   *************   6694   Schedule:Week:Daily {0385c5f5-08b7-4433-97ea-6c8568e4fcd4}, !- Name\n   *************   6695   Sp-ER_Triage_Mult4_Flr_1 Sys-3 Flr-1 Sch-H HPlcmt-north ZN NECB System 3 PSZ Occ Sch Sunday, !- Sunday Schedule:Day Name\n   *************   6696   Sp-ER_Triage_Mult4_Flr_1 Sys-3 Flr-1 Sch-H HPlcmt-north ZN NECB System 3 PSZ Occ Sch Monday, !- Monday Schedule:Day Name\n   *************   6697   Sp-ER_Triage_Mult4_Flr_1 Sys-3 Flr-1 Sch-H HPlcmt-north ZN NECB System 3 PSZ Occ Sch Tuesday, !- Tuesday Schedule:Day Name\n   *************   6698   Sp-ER_Triage_Mult4_Flr_1 Sys-3 Flr-1 Sch-H HPlcmt-north ZN NECB System 3 PSZ Occ Sch Wednesday, !- Wednesday Schedule:Day Name\n   *************   6699   Sp-ER_Triage_Mult4_Flr_1 Sys-3 Flr-1 Sch-H HPlcmt-north ZN NECB System 3 PSZ Occ Sch Thursday, !- Thursday Schedule:Day Name\n   *************   6700   Sp-ER_Triage_Mult4_Flr_1 Sys-3 Flr-1 Sch-H HPlcmt-north ZN NECB System 3 PSZ Occ Sch Friday, !- Friday Schedule:Day Name\n   *************   6701   Sp-ER_Triage_Mult4_Flr_1 Sys-3 Flr-1 Sch-H HPlcmt-north ZN NECB System 3 PSZ Occ Sch Saturday, !- Saturday Schedule:Day Name\n   *************   6702   Sp-ER_Triage_Mult4_Flr_1 Sys-3 Flr-1 Sch-H HPlcmt-north ZN NECB System 3 PSZ Occ Sch Default, !- Holiday Schedule:Day Name\n   *************   6703   Sp-ER_Triage_Mult4_Flr_1 Sys-3 Flr-1 Sch-H HPlcmt-north ZN NECB System 3 PSZ Occ Sch Summer Design Day, !- SummerDesignDay Schedule:Day Name\n   ** Warning ** IP: IDF line~6703 Alpha Argument length exceeds maximum, will be truncated=  Sp-ER_Triage_Mult4_Flr_1 Sys-3 Flr-1 Sch-H HPlcmt-north ZN NECB System 3 PSZ Occ Sch Summer Design Da\n   **   ~~~   ** Will be processed as Alpha=SP-ER_TRIAGE_MULT4_FLR_1 SYS-3 FLR-1 SCH-H HPLCMT-NORTH ZN NECB SYSTEM 3 PSZ OCC SCH SUMMER DESIGN DAY\n   ************* IDF Context for following error/warning message:\n   ************* Note -- lines truncated at 300 characters, if necessary...\n   *************   6693 Schedule:Week:Daily,\n   ************* indicated Name=Schedule:Week:Daily {0385c5f5-08b7-4433-97ea-6c8568e4fcd4}\n   ************* Only last 10 lines before error line shown.....\n   *************   6695   Sp-ER_Triage_Mult4_Flr_1 Sys-3 Flr-1 Sch-H HPlcmt-north ZN NECB System 3 PSZ Occ Sch Sunday, !- Sunday Schedule:Day Name\n   *************   6696   Sp-ER_Triage_Mult4_Flr_1 Sys-3 Flr-1 Sch-H HPlcmt-north ZN NECB System 3 PSZ Occ Sch Monday, !- Monday Schedule:Day Name\n   *************   6697   Sp-ER_Triage_Mult4_Flr_1 Sys-3 Flr-1 Sch-H HPlcmt-north ZN NECB System 3 PSZ Occ Sch Tuesday, !- Tuesday Schedule:Day Name\n   *************   6698   Sp-ER_Triage_Mult4_Flr_1 Sys-3 Flr-1 Sch-H HPlcmt-north ZN NECB System 3 PSZ Occ Sch Wednesday, !- Wednesday Schedule:Day Name\n   *************   6699   Sp-ER_Triage_Mult4_Flr_1 Sys-3 Flr-1 Sch-H HPlcmt-north ZN NECB System 3 PSZ Occ Sch Thursday, !- Thursday Schedule:Day Name\n   *************   6700   Sp-ER_Triage_Mult4_Flr_1 Sys-3 Flr-1 Sch-H HPlcmt-north ZN NECB System 3 PSZ Occ Sch Friday, !- Friday Schedule:Day Name\n   *************   6701   Sp-ER_Triage_Mult4_Flr_1 Sys-3 Flr-1 Sch-H HPlcmt-north ZN NECB System 3 PSZ Occ Sch Saturday, !- Saturday Schedule:Day Name\n   *************   6702   Sp-ER_Triage_Mult4_Flr_1 Sys-3 Flr-1 Sch-H HPlcmt-north ZN NECB System 3 PSZ Occ Sch Default, !- Holiday Schedule:Day Name\n   *************   6703   Sp-ER_Triage_Mult4_Flr_1 Sys-3 Flr-1 Sch-H HPlcmt-north ZN NECB System 3 PSZ Occ Sch Summer Design Day, !- SummerDesignDay Schedule:Day Name\n   *************   6704   Sp-ER_Triage_Mult4_Flr_1 Sys-3 Flr-1 Sch-H HPlcmt-north ZN NECB System 3 PSZ Occ Sch Winter Design Day, !- WinterDesignDay Schedule:Day Name\n   ** Warning ** IP: IDF line~6704 Alpha Argument length exceeds maximum, will be truncated=  Sp-ER_Triage_Mult4_Flr_1 Sys-3 Flr-1 Sch-H HPlcmt-north ZN NECB System 3 PSZ Occ Sch Winter Design Da\n   **   ~~~   ** Will be processed as Alpha=SP-ER_TRIAGE_MULT4_FLR_1 SYS-3 FLR-1 SCH-H HPLCMT-NORTH ZN NECB SYSTEM 3 PSZ OCC SCH WINTER DESIGN DAY\n   ************* IDF Context for following error/warning message:\n   ************* Note -- lines truncated at 300 characters, if necessary...\n   *************   6724 Schedule:Day:Interval,\n   ************* indicated Name=Sp-ER_Triage_Mult4_Flr_1 Sys-3 Flr-1 Sch-H HPlcmt-north ZN NECB System 3 PSZ Occ Sch Summer Design Day\n   ************* Only last 1 lines before error line shown.....\n   *************   6725   Sp-ER_Triage_Mult4_Flr_1 Sys-3 Flr-1 Sch-H HPlcmt-north ZN NECB System 3 PSZ Occ Sch Summer Design Day, !- Name\n   ** Warning ** IP: IDF line~6725 Alpha Argument length exceeds maximum, will be truncated=  Sp-ER_Triage_Mult4_Flr_1 Sys-3 Flr-1 Sch-H HPlcmt-north ZN NECB System 3 PSZ Occ Sch Summer Design Da\n   **   ~~~   ** Will be processed as Alpha=SP-ER_TRIAGE_MULT4_FLR_1 SYS-3 FLR-1 SCH-H HPLCMT-NORTH ZN NECB SYSTEM 3 PSZ OCC SCH SUMMER DESIGN DAY\n   ************* IDF Context for following error/warning message:\n   ************* Note -- lines truncated at 300 characters, if necessary...\n   *************   6731 Schedule:Day:Interval,\n   ************* indicated Name=Sp-ER_Triage_Mult4_Flr_1 Sys-3 Flr-1 Sch-H HPlcmt-north ZN NECB System 3 PSZ Occ Sch Winter Design Day\n   ************* Only last 1 lines before error line shown.....\n   *************   6732   Sp-ER_Triage_Mult4_Flr_1 Sys-3 Flr-1 Sch-H HPlcmt-north ZN NECB System 3 PSZ Occ Sch Winter Design Day, !- Name\n   ** Warning ** IP: IDF line~6732 Alpha Argument length exceeds maximum, will be truncated=  Sp-ER_Triage_Mult4_Flr_1 Sys-3 Flr-1 Sch-H HPlcmt-north ZN NECB System 3 PSZ Occ Sch Winter Design Da\n   **   ~~~   ** Will be processed as Alpha=SP-ER_TRIAGE_MULT4_FLR_1 SYS-3 FLR-1 SCH-H HPLCMT-NORTH ZN NECB SYSTEM 3 PSZ OCC SCH WINTER DESIGN DAY\n   ************* IDF Context for following error/warning message:\n   ************* Note -- lines truncated at 300 characters, if necessary...\n   *************   7423 Schedule:Week:Daily,\n   ************* indicated Name=Schedule:Week:Daily {55273797-3512-4e39-ac97-d8791b677a80}\n   ************* Only last 10 lines before error line shown.....\n   *************   7424   Schedule:Week:Daily {55273797-3512-4e39-ac97-d8791b677a80}, !- Name\n   *************   7425   Sp-ICU_NurseStn_Lobby_Flr_2 Sys-3 Flr-4 Sch-H HPlcmt-core ZN NECB System 3 PSZ Occ Sch Sunday, !- Sunday Schedule:Day Name\n   *************   7426   Sp-ICU_NurseStn_Lobby_Flr_2 Sys-3 Flr-4 Sch-H HPlcmt-core ZN NECB System 3 PSZ Occ Sch Monday, !- Monday Schedule:Day Name\n   *************   7427   Sp-ICU_NurseStn_Lobby_Flr_2 Sys-3 Flr-4 Sch-H HPlcmt-core ZN NECB System 3 PSZ Occ Sch Tuesday, !- Tuesday Schedule:Day Name\n   *************   7428   Sp-ICU_NurseStn_Lobby_Flr_2 Sys-3 Flr-4 Sch-H HPlcmt-core ZN NECB System 3 PSZ Occ Sch Wednesday, !- Wednesday Schedule:Day Name\n   *************   7429   Sp-ICU_NurseStn_Lobby_Flr_2 Sys-3 Flr-4 Sch-H HPlcmt-core ZN NECB System 3 PSZ Occ Sch Thursday, !- Thursday Schedule:Day Name\n   *************   7430   Sp-ICU_NurseStn_Lobby_Flr_2 Sys-3 Flr-4 Sch-H HPlcmt-core ZN NECB System 3 PSZ Occ Sch Friday, !- Friday Schedule:Day Name\n   *************   7431   Sp-ICU_NurseStn_Lobby_Flr_2 Sys-3 Flr-4 Sch-H HPlcmt-core ZN NECB System 3 PSZ Occ Sch Saturday, !- Saturday Schedule:Day Name\n   *************   7432   Sp-ICU_NurseStn_Lobby_Flr_2 Sys-3 Flr-4 Sch-H HPlcmt-core ZN NECB System 3 PSZ Occ Sch Default, !- Holiday Schedule:Day Name\n   *************   7433   Sp-ICU_NurseStn_Lobby_Flr_2 Sys-3 Flr-4 Sch-H HPlcmt-core ZN NECB System 3 PSZ Occ Sch Summer Design Day, !- SummerDesignDay Schedule:Day Name\n   ** Warning ** IP: IDF line~7433 Alpha Argument length exceeds maximum, will be truncated=  Sp-ICU_NurseStn_Lobby_Flr_2 Sys-3 Flr-4 Sch-H HPlcmt-core ZN NECB System 3 PSZ Occ Sch Summer Design Da\n   **   ~~~   ** Will be processed as Alpha=SP-ICU_NURSESTN_LOBBY_FLR_2 SYS-3 FLR-4 SCH-H HPLCMT-CORE ZN NECB SYSTEM 3 PSZ OCC SCH SUMMER DESIGN DAY\n   ************* IDF Context for following error/warning message:\n   ************* Note -- lines truncated at 300 characters, if necessary...\n   *************   7423 Schedule:Week:Daily,\n   ************* indicated Name=Schedule:Week:Daily {55273797-3512-4e39-ac97-d8791b677a80}\n   ************* Only last 10 lines before error line shown.....\n   *************   7425   Sp-ICU_NurseStn_Lobby_Flr_2 Sys-3 Flr-4 Sch-H HPlcmt-core ZN NECB System 3 PSZ Occ Sch Sunday, !- Sunday Schedule:Day Name\n   *************   7426   Sp-ICU_NurseStn_Lobby_Flr_2 Sys-3 Flr-4 Sch-H HPlcmt-core ZN NECB System 3 PSZ Occ Sch Monday, !- Monday Schedule:Day Name\n   *************   7427   Sp-ICU_NurseStn_Lobby_Flr_2 Sys-3 Flr-4 Sch-H HPlcmt-core ZN NECB System 3 PSZ Occ Sch Tuesday, !- Tuesday Schedule:Day Name\n   *************   7428   Sp-ICU_NurseStn_Lobby_Flr_2 Sys-3 Flr-4 Sch-H HPlcmt-core ZN NECB System 3 PSZ Occ Sch Wednesday, !- Wednesday Schedule:Day Name\n   *************   7429   Sp-ICU_NurseStn_Lobby_Flr_2 Sys-3 Flr-4 Sch-H HPlcmt-core ZN NECB System 3 PSZ Occ Sch Thursday, !- Thursday Schedule:Day Name\n   *************   7430   Sp-ICU_NurseStn_Lobby_Flr_2 Sys-3 Flr-4 Sch-H HPlcmt-core ZN NECB System 3 PSZ Occ Sch Friday, !- Friday Schedule:Day Name\n   *************   7431   Sp-ICU_NurseStn_Lobby_Flr_2 Sys-3 Flr-4 Sch-H HPlcmt-core ZN NECB System 3 PSZ Occ Sch Saturday, !- Saturday Schedule:Day Name\n   *************   7432   Sp-ICU_NurseStn_Lobby_Flr_2 Sys-3 Flr-4 Sch-H HPlcmt-core ZN NECB System 3 PSZ Occ Sch Default, !- Holiday Schedule:Day Name\n   *************   7433   Sp-ICU_NurseStn_Lobby_Flr_2 Sys-3 Flr-4 Sch-H HPlcmt-core ZN NECB System 3 PSZ Occ Sch Summer Design Day, !- SummerDesignDay Schedule:Day Name\n   *************   7434   Sp-ICU_NurseStn_Lobby_Flr_2 Sys-3 Flr-4 Sch-H HPlcmt-core ZN NECB System 3 PSZ Occ Sch Winter Design Day, !- WinterDesignDay Schedule:Day Name\n   ** Warning ** IP: IDF line~7434 Alpha Argument length exceeds maximum, will be truncated=  Sp-ICU_NurseStn_Lobby_Flr_2 Sys-3 Flr-4 Sch-H HPlcmt-core ZN NECB System 3 PSZ Occ Sch Winter Design Da\n   **   ~~~   ** Will be processed as Alpha=SP-ICU_NURSESTN_LOBBY_FLR_2 SYS-3 FLR-4 SCH-H HPLCMT-CORE ZN NECB SYSTEM 3 PSZ OCC SCH WINTER DESIGN DAY\n   ************* IDF Context for following error/warning message:\n   ************* Note -- lines truncated at 300 characters, if necessary...\n   *************   7454 Schedule:Day:Interval,\n   ************* indicated Name=Sp-ICU_NurseStn_Lobby_Flr_2 Sys-3 Flr-4 Sch-H HPlcmt-core ZN NECB System 3 PSZ Occ Sch Summer Design Day\n   ************* Only last 1 lines before error line shown.....\n   *************   7455   Sp-ICU_NurseStn_Lobby_Flr_2 Sys-3 Flr-4 Sch-H HPlcmt-core ZN NECB System 3 PSZ Occ Sch Summer Design Day, !- Name\n   ** Warning ** IP: IDF line~7455 Alpha Argument length exceeds maximum, will be truncated=  Sp-ICU_NurseStn_Lobby_Flr_2 Sys-3 Flr-4 Sch-H HPlcmt-core ZN NECB System 3 PSZ Occ Sch Summer Design Da\n   **   ~~~   ** Will be processed as Alpha=SP-ICU_NURSESTN_LOBBY_FLR_2 SYS-3 FLR-4 SCH-H HPLCMT-CORE ZN NECB SYSTEM 3 PSZ OCC SCH SUMMER DESIGN DAY\n   ************* IDF Context for following error/warning message:\n   ************* Note -- lines truncated at 300 characters, if necessary...\n   *************   7461 Schedule:Day:Interval,\n   ************* indicated Name=Sp-ICU_NurseStn_Lobby_Flr_2 Sys-3 Flr-4 Sch-H HPlcmt-core ZN NECB System 3 PSZ Occ Sch Winter Design Day\n   ************* Only last 1 lines before error line shown.....\n   *************   7462   Sp-ICU_NurseStn_Lobby_Flr_2 Sys-3 Flr-4 Sch-H HPlcmt-core ZN NECB System 3 PSZ Occ Sch Winter Design Day, !- Name\n   ** Warning ** IP: IDF line~7462 Alpha Argument length exceeds maximum, will be truncated=  Sp-ICU_NurseStn_Lobby_Flr_2 Sys-3 Flr-4 Sch-H HPlcmt-core ZN NECB System 3 PSZ Occ Sch Winter Design Da\n   **   ~~~   ** Will be processed as Alpha=SP-ICU_NURSESTN_LOBBY_FLR_2 SYS-3 FLR-4 SCH-H HPLCMT-CORE ZN NECB SYSTEM 3 PSZ OCC SCH WINTER DESIGN DAY\n   ************* IDF Context for following error/warning message:\n   ************* Note -- lines truncated at 300 characters, if necessary...\n   *************   8272 Schedule:Week:Daily,\n   ************* indicated Name=Schedule:Week:Daily {f2437086-1b58-49e5-ae89-84272fc2f555}\n   ************* Only last 10 lines before error line shown.....\n   *************   8273   Schedule:Week:Daily {f2437086-1b58-49e5-ae89-84272fc2f555}, !- Name\n   *************   8274   Sp-IC_PatRoom3_Mult6_Flr_2 Sys-3 Flr-4 Sch-H HPlcmt-west ZN NECB System 3 PSZ Occ Sch Sunday, !- Sunday Schedule:Day Name\n   *************   8275   Sp-IC_PatRoom3_Mult6_Flr_2 Sys-3 Flr-4 Sch-H HPlcmt-west ZN NECB System 3 PSZ Occ Sch Monday, !- Monday Schedule:Day Name\n   *************   8276   Sp-IC_PatRoom3_Mult6_Flr_2 Sys-3 Flr-4 Sch-H HPlcmt-west ZN NECB System 3 PSZ Occ Sch Tuesday, !- Tuesday Schedule:Day Name\n   *************   8277   Sp-IC_PatRoom3_Mult6_Flr_2 Sys-3 Flr-4 Sch-H HPlcmt-west ZN NECB System 3 PSZ Occ Sch Wednesday, !- Wednesday Schedule:Day Name\n   *************   8278   Sp-IC_PatRoom3_Mult6_Flr_2 Sys-3 Flr-4 Sch-H HPlcmt-west ZN NECB System 3 PSZ Occ Sch Thursday, !- Thursday Schedule:Day Name\n   *************   8279   Sp-IC_PatRoom3_Mult6_Flr_2 Sys-3 Flr-4 Sch-H HPlcmt-west ZN NECB System 3 PSZ Occ Sch Friday, !- Friday Schedule:Day Name\n   *************   8280   Sp-IC_PatRoom3_Mult6_Flr_2 Sys-3 Flr-4 Sch-H HPlcmt-west ZN NECB System 3 PSZ Occ Sch Saturday, !- Saturday Schedule:Day Name\n   *************   8281   Sp-IC_PatRoom3_Mult6_Flr_2 Sys-3 Flr-4 Sch-H HPlcmt-west ZN NECB System 3 PSZ Occ Sch Default, !- Holiday Schedule:Day Name\n   *************   8282   Sp-IC_PatRoom3_Mult6_Flr_2 Sys-3 Flr-4 Sch-H HPlcmt-west ZN NECB System 3 PSZ Occ Sch Summer Design Day, !- SummerDesignDay Schedule:Day Name\n   ** Warning ** IP: IDF line~8282 Alpha Argument length exceeds maximum, will be truncated=  Sp-IC_PatRoom3_Mult6_Flr_2 Sys-3 Flr-4 Sch-H HPlcmt-west ZN NECB System 3 PSZ Occ Sch Summer Design Da\n   **   ~~~   ** Will be processed as Alpha=SP-IC_PATROOM3_MULT6_FLR_2 SYS-3 FLR-4 SCH-H HPLCMT-WEST ZN NECB SYSTEM 3 PSZ OCC SCH SUMMER DESIGN DAY\n   ************* IDF Context for following error/warning message:\n   ************* Note -- lines truncated at 300 characters, if necessary...\n   *************   8272 Schedule:Week:Daily,\n   ************* indicated Name=Schedule:Week:Daily {f2437086-1b58-49e5-ae89-84272fc2f555}\n   ************* Only last 10 lines before error line shown.....\n   *************   8274   Sp-IC_PatRoom3_Mult6_Flr_2 Sys-3 Flr-4 Sch-H HPlcmt-west ZN NECB System 3 PSZ Occ Sch Sunday, !- Sunday Schedule:Day Name\n   *************   8275   Sp-IC_PatRoom3_Mult6_Flr_2 Sys-3 Flr-4 Sch-H HPlcmt-west ZN NECB System 3 PSZ Occ Sch Monday, !- Monday Schedule:Day Name\n   *************   8276   Sp-IC_PatRoom3_Mult6_Flr_2 Sys-3 Flr-4 Sch-H HPlcmt-west ZN NECB System 3 PSZ Occ Sch Tuesday, !- Tuesday Schedule:Day Name\n   *************   8277   Sp-IC_PatRoom3_Mult6_Flr_2 Sys-3 Flr-4 Sch-H HPlcmt-west ZN NECB System 3 PSZ Occ Sch Wednesday, !- Wednesday Schedule:Day Name\n   *************   8278   Sp-IC_PatRoom3_Mult6_Flr_2 Sys-3 Flr-4 Sch-H HPlcmt-west ZN NECB System 3 PSZ Occ Sch Thursday, !- Thursday Schedule:Day Name\n   *************   8279   Sp-IC_PatRoom3_Mult6_Flr_2 Sys-3 Flr-4 Sch-H HPlcmt-west ZN NECB System 3 PSZ Occ Sch Friday, !- Friday Schedule:Day Name\n   *************   8280   Sp-IC_PatRoom3_Mult6_Flr_2 Sys-3 Flr-4 Sch-H HPlcmt-west ZN NECB System 3 PSZ Occ Sch Saturday, !- Saturday Schedule:Day Name\n   *************   8281   Sp-IC_PatRoom3_Mult6_Flr_2 Sys-3 Flr-4 Sch-H HPlcmt-west ZN NECB System 3 PSZ Occ Sch Default, !- Holiday Schedule:Day Name\n   *************   8282   Sp-IC_PatRoom3_Mult6_Flr_2 Sys-3 Flr-4 Sch-H HPlcmt-west ZN NECB System 3 PSZ Occ Sch Summer Design Day, !- SummerDesignDay Schedule:Day Name\n   *************   8283   Sp-IC_PatRoom3_Mult6_Flr_2 Sys-3 Flr-4 Sch-H HPlcmt-west ZN NECB System 3 PSZ Occ Sch Winter Design Day, !- WinterDesignDay Schedule:Day Name\n   ** Warning ** IP: IDF line~8283 Alpha Argument length exceeds maximum, will be truncated=  Sp-IC_PatRoom3_Mult6_Flr_2 Sys-3 Flr-4 Sch-H HPlcmt-west ZN NECB System 3 PSZ Occ Sch Winter Design Da\n   **   ~~~   ** Will be processed as Alpha=SP-IC_PATROOM3_MULT6_FLR_2 SYS-3 FLR-4 SCH-H HPLCMT-WEST ZN NECB SYSTEM 3 PSZ OCC SCH WINTER DESIGN DAY\n   ************* IDF Context for following error/warning message:\n   ************* Note -- lines truncated at 300 characters, if necessary...\n   *************   8303 Schedule:Day:Interval,\n   ************* indicated Name=Sp-IC_PatRoom3_Mult6_Flr_2 Sys-3 Flr-4 Sch-H HPlcmt-west ZN NECB System 3 PSZ Occ Sch Summer Design Day\n   ************* Only last 1 lines before error line shown.....\n   *************   8304   Sp-IC_PatRoom3_Mult6_Flr_2 Sys-3 Flr-4 Sch-H HPlcmt-west ZN NECB System 3 PSZ Occ Sch Summer Design Day, !- Name\n   ** Warning ** IP: IDF line~8304 Alpha Argument length exceeds maximum, will be truncated=  Sp-IC_PatRoom3_Mult6_Flr_2 Sys-3 Flr-4 Sch-H HPlcmt-west ZN NECB System 3 PSZ Occ Sch Summer Design Da\n   **   ~~~   ** Will be processed as Alpha=SP-IC_PATROOM3_MULT6_FLR_2 SYS-3 FLR-4 SCH-H HPLCMT-WEST ZN NECB SYSTEM 3 PSZ OCC SCH SUMMER DESIGN DAY\n   ************* IDF Context for following error/warning message:\n   ************* Note -- lines truncated at 300 characters, if necessary...\n   *************   8310 Schedule:Day:Interval,\n   ************* indicated Name=Sp-IC_PatRoom3_Mult6_Flr_2 Sys-3 Flr-4 Sch-H HPlcmt-west ZN NECB System 3 PSZ Occ Sch Winter Design Day\n   ************* Only last 1 lines before error line shown.....\n   *************   8311   Sp-IC_PatRoom3_Mult6_Flr_2 Sys-3 Flr-4 Sch-H HPlcmt-west ZN NECB System 3 PSZ Occ Sch Winter Design Day, !- Name\n   ** Warning ** IP: IDF line~8311 Alpha Argument length exceeds maximum, will be truncated=  Sp-IC_PatRoom3_Mult6_Flr_2 Sys-3 Flr-4 Sch-H HPlcmt-west ZN NECB System 3 PSZ Occ Sch Winter Design Da\n   **   ~~~   ** Will be processed as Alpha=SP-IC_PATROOM3_MULT6_FLR_2 SYS-3 FLR-4 SCH-H HPLCMT-WEST ZN NECB SYSTEM 3 PSZ OCC SCH WINTER DESIGN DAY\n   ************* IDF Context for following error/warning message:\n   ************* Note -- lines truncated at 300 characters, if necessary...\n   *************  10967 Schedule:Week:Daily,\n   ************* indicated Name=Schedule:Week:Daily {3dad278d-eb20-4fc2-a2fb-ffee92be6f03}\n   ************* Only last 10 lines before error line shown.....\n   *************  10968   Schedule:Week:Daily {3dad278d-eb20-4fc2-a2fb-ffee92be6f03}, !- Name\n   *************  10969   Sp-NurseStn_Lobby_Flr_5 Sys-3 Flr-6 Sch-H HPlcmt-south ZN NECB System 3 PSZ Occ Sch Sunday, !- Sunday Schedule:Day Name\n   *************  10970   Sp-NurseStn_Lobby_Flr_5 Sys-3 Flr-6 Sch-H HPlcmt-south ZN NECB System 3 PSZ Occ Sch Monday, !- Monday Schedule:Day Name\n   *************  10971   Sp-NurseStn_Lobby_Flr_5 Sys-3 Flr-6 Sch-H HPlcmt-south ZN NECB System 3 PSZ Occ Sch Tuesday, !- Tuesday Schedule:Day Name\n   *************  10972   Sp-NurseStn_Lobby_Flr_5 Sys-3 Flr-6 Sch-H HPlcmt-south ZN NECB System 3 PSZ Occ Sch Wednesday, !- Wednesday Schedule:Day Name\n   *************  10973   Sp-NurseStn_Lobby_Flr_5 Sys-3 Flr-6 Sch-H HPlcmt-south ZN NECB System 3 PSZ Occ Sch Thursday, !- Thursday Schedule:Day Name\n   *************  10974   Sp-NurseStn_Lobby_Flr_5 Sys-3 Flr-6 Sch-H HPlcmt-south ZN NECB System 3 PSZ Occ Sch Friday, !- Friday Schedule:Day Name\n   *************  10975   Sp-NurseStn_Lobby_Flr_5 Sys-3 Flr-6 Sch-H HPlcmt-south ZN NECB System 3 PSZ Occ Sch Saturday, !- Saturday Schedule:Day Name\n   *************  10976   Sp-NurseStn_Lobby_Flr_5 Sys-3 Flr-6 Sch-H HPlcmt-south ZN NECB System 3 PSZ Occ Sch Default, !- Holiday Schedule:Day Name\n   *************  10977   Sp-NurseStn_Lobby_Flr_5 Sys-3 Flr-6 Sch-H HPlcmt-south ZN NECB System 3 PSZ Occ Sch Summer Design Day, !- SummerDesignDay Schedule:Day Name\n   ** Warning ** IP: IDF line~10977 Alpha Argument length exceeds maximum, will be truncated=  Sp-NurseStn_Lobby_Flr_5 Sys-3 Flr-6 Sch-H HPlcmt-south ZN NECB System 3 PSZ Occ Sch Summer Design Da\n   **   ~~~   ** Will be processed as Alpha=SP-NURSESTN_LOBBY_FLR_5 SYS-3 FLR-6 SCH-H HPLCMT-SOUTH ZN NECB SYSTEM 3 PSZ OCC SCH SUMMER DESIGN DAY\n   ************* IDF Context for following error/warning message:\n   ************* Note -- lines truncated at 300 characters, if necessary...\n   *************  10967 Schedule:Week:Daily,\n   ************* indicated Name=Schedule:Week:Daily {3dad278d-eb20-4fc2-a2fb-ffee92be6f03}\n   ************* Only last 10 lines before error line shown.....\n   *************  10969   Sp-NurseStn_Lobby_Flr_5 Sys-3 Flr-6 Sch-H HPlcmt-south ZN NECB System 3 PSZ Occ Sch Sunday, !- Sunday Schedule:Day Name\n   *************  10970   Sp-NurseStn_Lobby_Flr_5 Sys-3 Flr-6 Sch-H HPlcmt-south ZN NECB System 3 PSZ Occ Sch Monday, !- Monday Schedule:Day Name\n   *************  10971   Sp-NurseStn_Lobby_Flr_5 Sys-3 Flr-6 Sch-H HPlcmt-south ZN NECB System 3 PSZ Occ Sch Tuesday, !- Tuesday Schedule:Day Name\n   *************  10972   Sp-NurseStn_Lobby_Flr_5 Sys-3 Flr-6 Sch-H HPlcmt-south ZN NECB System 3 PSZ Occ Sch Wednesday, !- Wednesday Schedule:Day Name\n   *************  10973   Sp-NurseStn_Lobby_Flr_5 Sys-3 Flr-6 Sch-H HPlcmt-south ZN NECB System 3 PSZ Occ Sch Thursday, !- Thursday Schedule:Day Name\n   *************  10974   Sp-NurseStn_Lobby_Flr_5 Sys-3 Flr-6 Sch-H HPlcmt-south ZN NECB System 3 PSZ Occ Sch Friday, !- Friday Schedule:Day Name\n   *************  10975   Sp-NurseStn_Lobby_Flr_5 Sys-3 Flr-6 Sch-H HPlcmt-south ZN NECB System 3 PSZ Occ Sch Saturday, !- Saturday Schedule:Day Name\n   *************  10976   Sp-NurseStn_Lobby_Flr_5 Sys-3 Flr-6 Sch-H HPlcmt-south ZN NECB System 3 PSZ Occ Sch Default, !- Holiday Schedule:Day Name\n   *************  10977   Sp-NurseStn_Lobby_Flr_5 Sys-3 Flr-6 Sch-H HPlcmt-south ZN NECB System 3 PSZ Occ Sch Summer Design Day, !- SummerDesignDay Schedule:Day Name\n   *************  10978   Sp-NurseStn_Lobby_Flr_5 Sys-3 Flr-6 Sch-H HPlcmt-south ZN NECB System 3 PSZ Occ Sch Winter Design Day, !- WinterDesignDay Schedule:Day Name\n   ** Warning ** IP: IDF line~10978 Alpha Argument length exceeds maximum, will be truncated=  Sp-NurseStn_Lobby_Flr_5 Sys-3 Flr-6 Sch-H HPlcmt-south ZN NECB System 3 PSZ Occ Sch Winter Design Da\n   **   ~~~   ** Will be processed as Alpha=SP-NURSESTN_LOBBY_FLR_5 SYS-3 FLR-6 SCH-H HPLCMT-SOUTH ZN NECB SYSTEM 3 PSZ OCC SCH WINTER DESIGN DAY\n   ************* IDF Context for following error/warning message:\n   ************* Note -- lines truncated at 300 characters, if necessary...\n   *************  10998 Schedule:Day:Interval,\n   ************* indicated Name=Sp-NurseStn_Lobby_Flr_5 Sys-3 Flr-6 Sch-H HPlcmt-south ZN NECB System 3 PSZ Occ Sch Summer Design Day\n   ************* Only last 1 lines before error line shown.....\n   *************  10999   Sp-NurseStn_Lobby_Flr_5 Sys-3 Flr-6 Sch-H HPlcmt-south ZN NECB System 3 PSZ Occ Sch Summer Design Day, !- Name\n   ** Warning ** IP: IDF line~10999 Alpha Argument length exceeds maximum, will be truncated=  Sp-NurseStn_Lobby_Flr_5 Sys-3 Flr-6 Sch-H HPlcmt-south ZN NECB System 3 PSZ Occ Sch Summer Design Da\n   **   ~~~   ** Will be processed as Alpha=SP-NURSESTN_LOBBY_FLR_5 SYS-3 FLR-6 SCH-H HPLCMT-SOUTH ZN NECB SYSTEM 3 PSZ OCC SCH SUMMER DESIGN DAY\n   ************* IDF Context for following error/warning message:\n   ************* Note -- lines truncated at 300 characters, if necessary...\n   *************  11005 Schedule:Day:Interval,\n   ************* indicated Name=Sp-NurseStn_Lobby_Flr_5 Sys-3 Flr-6 Sch-H HPlcmt-south ZN NECB System 3 PSZ Occ Sch Winter Design Day\n   ************* Only last 1 lines before error line shown.....\n   *************  11006   Sp-NurseStn_Lobby_Flr_5 Sys-3 Flr-6 Sch-H HPlcmt-south ZN NECB System 3 PSZ Occ Sch Winter Design Day, !- Name\n   ** Warning ** IP: IDF line~11006 Alpha Argument length exceeds maximum, will be truncated=  Sp-NurseStn_Lobby_Flr_5 Sys-3 Flr-6 Sch-H HPlcmt-south ZN NECB System 3 PSZ Occ Sch Winter Design Da\n   **   ~~~   ** Will be processed as Alpha=SP-NURSESTN_LOBBY_FLR_5 SYS-3 FLR-6 SCH-H HPLCMT-SOUTH ZN NECB SYSTEM 3 PSZ OCC SCH WINTER DESIGN DAY\n   ************* IDF Context for following error/warning message:\n   ************* Note -- lines truncated at 300 characters, if necessary...\n   *************  14142 Schedule:Week:Daily,\n   ************* indicated Name=Schedule:Week:Daily {ad26d04d-9193-4a9a-84a8-d9b37e6de5eb}\n   ************* Only last 10 lines before error line shown.....\n   *************  14143   Schedule:Week:Daily {ad26d04d-9193-4a9a-84a8-d9b37e6de5eb}, !- Name\n   *************  14144   Sp-OR_NurseStn_Lobby_Flr_2 Sys-3 Flr-4 Sch-H HPlcmt-south ZN NECB System 3 PSZ Occ Sch Sunday, !- Sunday Schedule:Day Name\n   *************  14145   Sp-OR_NurseStn_Lobby_Flr_2 Sys-3 Flr-4 Sch-H HPlcmt-south ZN NECB System 3 PSZ Occ Sch Monday, !- Monday Schedule:Day Name\n   *************  14146   Sp-OR_NurseStn_Lobby_Flr_2 Sys-3 Flr-4 Sch-H HPlcmt-south ZN NECB System 3 PSZ Occ Sch Tuesday, !- Tuesday Schedule:Day Name\n   *************  14147   Sp-OR_NurseStn_Lobby_Flr_2 Sys-3 Flr-4 Sch-H HPlcmt-south ZN NECB System 3 PSZ Occ Sch Wednesday, !- Wednesday Schedule:Day Name\n   *************  14148   Sp-OR_NurseStn_Lobby_Flr_2 Sys-3 Flr-4 Sch-H HPlcmt-south ZN NECB System 3 PSZ Occ Sch Thursday, !- Thursday Schedule:Day Name\n   *************  14149   Sp-OR_NurseStn_Lobby_Flr_2 Sys-3 Flr-4 Sch-H HPlcmt-south ZN NECB System 3 PSZ Occ Sch Friday, !- Friday Schedule:Day Name\n   *************  14150   Sp-OR_NurseStn_Lobby_Flr_2 Sys-3 Flr-4 Sch-H HPlcmt-south ZN NECB System 3 PSZ Occ Sch Saturday, !- Saturday Schedule:Day Name\n   *************  14151   Sp-OR_NurseStn_Lobby_Flr_2 Sys-3 Flr-4 Sch-H HPlcmt-south ZN NECB System 3 PSZ Occ Sch Default, !- Holiday Schedule:Day Name\n   *************  14152   Sp-OR_NurseStn_Lobby_Flr_2 Sys-3 Flr-4 Sch-H HPlcmt-south ZN NECB System 3 PSZ Occ Sch Summer Design Day, !- SummerDesignDay Schedule:Day Name\n   ** Warning ** IP: IDF line~14152 Alpha Argument length exceeds maximum, will be truncated=  Sp-OR_NurseStn_Lobby_Flr_2 Sys-3 Flr-4 Sch-H HPlcmt-south ZN NECB System 3 PSZ Occ Sch Summer Design Da\n   **   ~~~   ** Will be processed as Alpha=SP-OR_NURSESTN_LOBBY_FLR_2 SYS-3 FLR-4 SCH-H HPLCMT-SOUTH ZN NECB SYSTEM 3 PSZ OCC SCH SUMMER DESIGN DAY\n   ************* IDF Context for following error/warning message:\n   ************* Note -- lines truncated at 300 characters, if necessary...\n   *************  14142 Schedule:Week:Daily,\n   ************* indicated Name=Schedule:Week:Daily {ad26d04d-9193-4a9a-84a8-d9b37e6de5eb}\n   ************* Only last 10 lines before error line shown.....\n   *************  14144   Sp-OR_NurseStn_Lobby_Flr_2 Sys-3 Flr-4 Sch-H HPlcmt-south ZN NECB System 3 PSZ Occ Sch Sunday, !- Sunday Schedule:Day Name\n   *************  14145   Sp-OR_NurseStn_Lobby_Flr_2 Sys-3 Flr-4 Sch-H HPlcmt-south ZN NECB System 3 PSZ Occ Sch Monday, !- Monday Schedule:Day Name\n   *************  14146   Sp-OR_NurseStn_Lobby_Flr_2 Sys-3 Flr-4 Sch-H HPlcmt-south ZN NECB System 3 PSZ Occ Sch Tuesday, !- Tuesday Schedule:Day Name\n   *************  14147   Sp-OR_NurseStn_Lobby_Flr_2 Sys-3 Flr-4 Sch-H HPlcmt-south ZN NECB System 3 PSZ Occ Sch Wednesday, !- Wednesday Schedule:Day Name\n   *************  14148   Sp-OR_NurseStn_Lobby_Flr_2 Sys-3 Flr-4 Sch-H HPlcmt-south ZN NECB System 3 PSZ Occ Sch Thursday, !- Thursday Schedule:Day Name\n   *************  14149   Sp-OR_NurseStn_Lobby_Flr_2 Sys-3 Flr-4 Sch-H HPlcmt-south ZN NECB System 3 PSZ Occ Sch Friday, !- Friday Schedule:Day Name\n   *************  14150   Sp-OR_NurseStn_Lobby_Flr_2 Sys-3 Flr-4 Sch-H HPlcmt-south ZN NECB System 3 PSZ Occ Sch Saturday, !- Saturday Schedule:Day Name\n   *************  14151   Sp-OR_NurseStn_Lobby_Flr_2 Sys-3 Flr-4 Sch-H HPlcmt-south ZN NECB System 3 PSZ Occ Sch Default, !- Holiday Schedule:Day Name\n   *************  14152   Sp-OR_NurseStn_Lobby_Flr_2 Sys-3 Flr-4 Sch-H HPlcmt-south ZN NECB System 3 PSZ Occ Sch Summer Design Day, !- SummerDesignDay Schedule:Day Name\n   *************  14153   Sp-OR_NurseStn_Lobby_Flr_2 Sys-3 Flr-4 Sch-H HPlcmt-south ZN NECB System 3 PSZ Occ Sch Winter Design Day, !- WinterDesignDay Schedule:Day Name\n   ** Warning ** IP: IDF line~14153 Alpha Argument length exceeds maximum, will be truncated=  Sp-OR_NurseStn_Lobby_Flr_2 Sys-3 Flr-4 Sch-H HPlcmt-south ZN NECB System 3 PSZ Occ Sch Winter Design Da\n   **   ~~~   ** Will be processed as Alpha=SP-OR_NURSESTN_LOBBY_FLR_2 SYS-3 FLR-4 SCH-H HPLCMT-SOUTH ZN NECB SYSTEM 3 PSZ OCC SCH WINTER DESIGN DAY\n   ************* IDF Context for following error/warning message:\n   ************* Note -- lines truncated at 300 characters, if necessary...\n   *************  14173 Schedule:Day:Interval,\n   ************* indicated Name=Sp-OR_NurseStn_Lobby_Flr_2 Sys-3 Flr-4 Sch-H HPlcmt-south ZN NECB System 3 PSZ Occ Sch Summer Design Day\n   ************* Only last 1 lines before error line shown.....\n   *************  14174   Sp-OR_NurseStn_Lobby_Flr_2 Sys-3 Flr-4 Sch-H HPlcmt-south ZN NECB System 3 PSZ Occ Sch Summer Design Day, !- Name\n   ** Warning ** IP: IDF line~14174 Alpha Argument length exceeds maximum, will be truncated=  Sp-OR_NurseStn_Lobby_Flr_2 Sys-3 Flr-4 Sch-H HPlcmt-south ZN NECB System 3 PSZ Occ Sch Summer Design Da\n   **   ~~~   ** Will be processed as Alpha=SP-OR_NURSESTN_LOBBY_FLR_2 SYS-3 FLR-4 SCH-H HPLCMT-SOUTH ZN NECB SYSTEM 3 PSZ OCC SCH SUMMER DESIGN DAY\n   ************* IDF Context for following error/warning message:\n   ************* Note -- lines truncated at 300 characters, if necessary...\n   *************  14180 Schedule:Day:Interval,\n   ************* indicated Name=Sp-OR_NurseStn_Lobby_Flr_2 Sys-3 Flr-4 Sch-H HPlcmt-south ZN NECB System 3 PSZ Occ Sch Winter Design Day\n   ************* Only last 1 lines before error line shown.....\n   *************  14181   Sp-OR_NurseStn_Lobby_Flr_2 Sys-3 Flr-4 Sch-H HPlcmt-south ZN NECB System 3 PSZ Occ Sch Winter Design Day, !- Name\n   ** Warning ** IP: IDF line~14181 Alpha Argument length exceeds maximum, will be truncated=  Sp-OR_NurseStn_Lobby_Flr_2 Sys-3 Flr-4 Sch-H HPlcmt-south ZN NECB System 3 PSZ Occ Sch Winter Design Da\n   **   ~~~   ** Will be processed as Alpha=SP-OR_NURSESTN_LOBBY_FLR_2 SYS-3 FLR-4 SCH-H HPLCMT-SOUTH ZN NECB SYSTEM 3 PSZ OCC SCH WINTER DESIGN DAY\n   ************* IDF Context for following error/warning message:\n   ************* Note -- lines truncated at 300 characters, if necessary...\n   *************  14485 Schedule:Week:Daily,\n   ************* indicated Name=Schedule:Week:Daily {927f715b-ce24-44a5-be9b-7d54a4ef13a3}\n   ************* Only last 10 lines before error line shown.....\n   *************  14486   Schedule:Week:Daily {927f715b-ce24-44a5-be9b-7d54a4ef13a3}, !- Name\n   *************  14487   Sp-PatRoom1_Mult10_Flr_3 Sys-3 Flr-2 Sch-H HPlcmt-south ZN NECB System 3 PSZ Occ Sch Sunday, !- Sunday Schedule:Day Name\n   *************  14488   Sp-PatRoom1_Mult10_Flr_3 Sys-3 Flr-2 Sch-H HPlcmt-south ZN NECB System 3 PSZ Occ Sch Monday, !- Monday Schedule:Day Name\n   *************  14489   Sp-PatRoom1_Mult10_Flr_3 Sys-3 Flr-2 Sch-H HPlcmt-south ZN NECB System 3 PSZ Occ Sch Tuesday, !- Tuesday Schedule:Day Name\n   *************  14490   Sp-PatRoom1_Mult10_Flr_3 Sys-3 Flr-2 Sch-H HPlcmt-south ZN NECB System 3 PSZ Occ Sch Wednesday, !- Wednesday Schedule:Day Name\n   *************  14491   Sp-PatRoom1_Mult10_Flr_3 Sys-3 Flr-2 Sch-H HPlcmt-south ZN NECB System 3 PSZ Occ Sch Thursday, !- Thursday Schedule:Day Name\n   *************  14492   Sp-PatRoom1_Mult10_Flr_3 Sys-3 Flr-2 Sch-H HPlcmt-south ZN NECB System 3 PSZ Occ Sch Friday, !- Friday Schedule:Day Name\n   *************  14493   Sp-PatRoom1_Mult10_Flr_3 Sys-3 Flr-2 Sch-H HPlcmt-south ZN NECB System 3 PSZ Occ Sch Saturday, !- Saturday Schedule:Day Name\n   *************  14494   Sp-PatRoom1_Mult10_Flr_3 Sys-3 Flr-2 Sch-H HPlcmt-south ZN NECB System 3 PSZ Occ Sch Default, !- Holiday Schedule:Day Name\n   *************  14495   Sp-PatRoom1_Mult10_Flr_3 Sys-3 Flr-2 Sch-H HPlcmt-south ZN NECB System 3 PSZ Occ Sch Summer Design Day, !- SummerDesignDay Schedule:Day Name\n   ** Warning ** IP: IDF line~14495 Alpha Argument length exceeds maximum, will be truncated=  Sp-PatRoom1_Mult10_Flr_3 Sys-3 Flr-2 Sch-H HPlcmt-south ZN NECB System 3 PSZ Occ Sch Summer Design Da\n   **   ~~~   ** Will be processed as Alpha=SP-PATROOM1_MULT10_FLR_3 SYS-3 FLR-2 SCH-H HPLCMT-SOUTH ZN NECB SYSTEM 3 PSZ OCC SCH SUMMER DESIGN DAY\n   ************* IDF Context for following error/warning message:\n   ************* Note -- lines truncated at 300 characters, if necessary...\n   *************  14485 Schedule:Week:Daily,\n   ************* indicated Name=Schedule:Week:Daily {927f715b-ce24-44a5-be9b-7d54a4ef13a3}\n   ************* Only last 10 lines before error line shown.....\n   *************  14487   Sp-PatRoom1_Mult10_Flr_3 Sys-3 Flr-2 Sch-H HPlcmt-south ZN NECB System 3 PSZ Occ Sch Sunday, !- Sunday Schedule:Day Name\n   *************  14488   Sp-PatRoom1_Mult10_Flr_3 Sys-3 Flr-2 Sch-H HPlcmt-south ZN NECB System 3 PSZ Occ Sch Monday, !- Monday Schedule:Day Name\n   *************  14489   Sp-PatRoom1_Mult10_Flr_3 Sys-3 Flr-2 Sch-H HPlcmt-south ZN NECB System 3 PSZ Occ Sch Tuesday, !- Tuesday Schedule:Day Name\n   *************  14490   Sp-PatRoom1_Mult10_Flr_3 Sys-3 Flr-2 Sch-H HPlcmt-south ZN NECB System 3 PSZ Occ Sch Wednesday, !- Wednesday Schedule:Day Name\n   *************  14491   Sp-PatRoom1_Mult10_Flr_3 Sys-3 Flr-2 Sch-H HPlcmt-south ZN NECB System 3 PSZ Occ Sch Thursday, !- Thursday Schedule:Day Name\n   *************  14492   Sp-PatRoom1_Mult10_Flr_3 Sys-3 Flr-2 Sch-H HPlcmt-south ZN NECB System 3 PSZ Occ Sch Friday, !- Friday Schedule:Day Name\n   *************  14493   Sp-PatRoom1_Mult10_Flr_3 Sys-3 Flr-2 Sch-H HPlcmt-south ZN NECB System 3 PSZ Occ Sch Saturday, !- Saturday Schedule:Day Name\n   *************  14494   Sp-PatRoom1_Mult10_Flr_3 Sys-3 Flr-2 Sch-H HPlcmt-south ZN NECB System 3 PSZ Occ Sch Default, !- Holiday Schedule:Day Name\n   *************  14495   Sp-PatRoom1_Mult10_Flr_3 Sys-3 Flr-2 Sch-H HPlcmt-south ZN NECB System 3 PSZ Occ Sch Summer Design Day, !- SummerDesignDay Schedule:Day Name\n   *************  14496   Sp-PatRoom1_Mult10_Flr_3 Sys-3 Flr-2 Sch-H HPlcmt-south ZN NECB System 3 PSZ Occ Sch Winter Design Day, !- WinterDesignDay Schedule:Day Name\n   ** Warning ** IP: IDF line~14496 Alpha Argument length exceeds maximum, will be truncated=  Sp-PatRoom1_Mult10_Flr_3 Sys-3 Flr-2 Sch-H HPlcmt-south ZN NECB System 3 PSZ Occ Sch Winter Design Da\n   **   ~~~   ** Will be processed as Alpha=SP-PATROOM1_MULT10_FLR_3 SYS-3 FLR-2 SCH-H HPLCMT-SOUTH ZN NECB SYSTEM 3 PSZ OCC SCH WINTER DESIGN DAY\n   ************* IDF Context for following error/warning message:\n   ************* Note -- lines truncated at 300 characters, if necessary...\n   *************  14516 Schedule:Day:Interval,\n   ************* indicated Name=Sp-PatRoom1_Mult10_Flr_3 Sys-3 Flr-2 Sch-H HPlcmt-south ZN NECB System 3 PSZ Occ Sch Summer Design Day\n   ************* Only last 1 lines before error line shown.....\n   *************  14517   Sp-PatRoom1_Mult10_Flr_3 Sys-3 Flr-2 Sch-H HPlcmt-south ZN NECB System 3 PSZ Occ Sch Summer Design Day, !- Name\n   ** Warning ** IP: IDF line~14517 Alpha Argument length exceeds maximum, will be truncated=  Sp-PatRoom1_Mult10_Flr_3 Sys-3 Flr-2 Sch-H HPlcmt-south ZN NECB System 3 PSZ Occ Sch Summer Design Da\n   **   ~~~   ** Will be processed as Alpha=SP-PATROOM1_MULT10_FLR_3 SYS-3 FLR-2 SCH-H HPLCMT-SOUTH ZN NECB SYSTEM 3 PSZ OCC SCH SUMMER DESIGN DAY\n   ************* IDF Context for following error/warning message:\n   ************* Note -- lines truncated at 300 characters, if necessary...\n   *************  14523 Schedule:Day:Interval,\n   ************* indicated Name=Sp-PatRoom1_Mult10_Flr_3 Sys-3 Flr-2 Sch-H HPlcmt-south ZN NECB System 3 PSZ Occ Sch Winter Design Day\n   ************* Only last 1 lines before error line shown.....\n   *************  14524   Sp-PatRoom1_Mult10_Flr_3 Sys-3 Flr-2 Sch-H HPlcmt-south ZN NECB System 3 PSZ Occ Sch Winter Design Day, !- Name\n   ** Warning ** IP: IDF line~14524 Alpha Argument length exceeds maximum, will be truncated=  Sp-PatRoom1_Mult10_Flr_3 Sys-3 Flr-2 Sch-H HPlcmt-south ZN NECB System 3 PSZ Occ Sch Winter Design Da\n   **   ~~~   ** Will be processed as Alpha=SP-PATROOM1_MULT10_FLR_3 SYS-3 FLR-2 SCH-H HPLCMT-SOUTH ZN NECB SYSTEM 3 PSZ OCC SCH WINTER DESIGN DAY\n   ************* IDF Context for following error/warning message:\n   ************* Note -- lines truncated at 300 characters, if necessary...\n   *************  14828 Schedule:Week:Daily,\n   ************* indicated Name=Schedule:Week:Daily {d50d3bec-64c4-4dee-878d-d41054fcaa36}\n   ************* Only last 10 lines before error line shown.....\n   *************  14829   Schedule:Week:Daily {d50d3bec-64c4-4dee-878d-d41054fcaa36}, !- Name\n   *************  14830   Sp-PatRoom1_Mult10_Flr_4 Sys-3 Flr-3 Sch-H HPlcmt-south ZN NECB System 3 PSZ Occ Sch Sunday, !- Sunday Schedule:Day Name\n   *************  14831   Sp-PatRoom1_Mult10_Flr_4 Sys-3 Flr-3 Sch-H HPlcmt-south ZN NECB System 3 PSZ Occ Sch Monday, !- Monday Schedule:Day Name\n   *************  14832   Sp-PatRoom1_Mult10_Flr_4 Sys-3 Flr-3 Sch-H HPlcmt-south ZN NECB System 3 PSZ Occ Sch Tuesday, !- Tuesday Schedule:Day Name\n   *************  14833   Sp-PatRoom1_Mult10_Flr_4 Sys-3 Flr-3 Sch-H HPlcmt-south ZN NECB System 3 PSZ Occ Sch Wednesday, !- Wednesday Schedule:Day Name\n   *************  14834   Sp-PatRoom1_Mult10_Flr_4 Sys-3 Flr-3 Sch-H HPlcmt-south ZN NECB System 3 PSZ Occ Sch Thursday, !- Thursday Schedule:Day Name\n   *************  14835   Sp-PatRoom1_Mult10_Flr_4 Sys-3 Flr-3 Sch-H HPlcmt-south ZN NECB System 3 PSZ Occ Sch Friday, !- Friday Schedule:Day Name\n   *************  14836   Sp-PatRoom1_Mult10_Flr_4 Sys-3 Flr-3 Sch-H HPlcmt-south ZN NECB System 3 PSZ Occ Sch Saturday, !- Saturday Schedule:Day Name\n   *************  14837   Sp-PatRoom1_Mult10_Flr_4 Sys-3 Flr-3 Sch-H HPlcmt-south ZN NECB System 3 PSZ Occ Sch Default, !- Holiday Schedule:Day Name\n   *************  14838   Sp-PatRoom1_Mult10_Flr_4 Sys-3 Flr-3 Sch-H HPlcmt-south ZN NECB System 3 PSZ Occ Sch Summer Design Day, !- SummerDesignDay Schedule:Day Name\n   ** Warning ** IP: IDF line~14838 Alpha Argument length exceeds maximum, will be truncated=  Sp-PatRoom1_Mult10_Flr_4 Sys-3 Flr-3 Sch-H HPlcmt-south ZN NECB System 3 PSZ Occ Sch Summer Design Da\n   **   ~~~   ** Will be processed as Alpha=SP-PATROOM1_MULT10_FLR_4 SYS-3 FLR-3 SCH-H HPLCMT-SOUTH ZN NECB SYSTEM 3 PSZ OCC SCH SUMMER DESIGN DAY\n   ************* IDF Context for following error/warning message:\n   ************* Note -- lines truncated at 300 characters, if necessary...\n   *************  14828 Schedule:Week:Daily,\n   ************* indicated Name=Schedule:Week:Daily {d50d3bec-64c4-4dee-878d-d41054fcaa36}\n   ************* Only last 10 lines before error line shown.....\n   *************  14830   Sp-PatRoom1_Mult10_Flr_4 Sys-3 Flr-3 Sch-H HPlcmt-south ZN NECB System 3 PSZ Occ Sch Sunday, !- Sunday Schedule:Day Name\n   *************  14831   Sp-PatRoom1_Mult10_Flr_4 Sys-3 Flr-3 Sch-H HPlcmt-south ZN NECB System 3 PSZ Occ Sch Monday, !- Monday Schedule:Day Name\n   *************  14832   Sp-PatRoom1_Mult10_Flr_4 Sys-3 Flr-3 Sch-H HPlcmt-south ZN NECB System 3 PSZ Occ Sch Tuesday, !- Tuesday Schedule:Day Name\n   *************  14833   Sp-PatRoom1_Mult10_Flr_4 Sys-3 Flr-3 Sch-H HPlcmt-south ZN NECB System 3 PSZ Occ Sch Wednesday, !- Wednesday Schedule:Day Name\n   *************  14834   Sp-PatRoom1_Mult10_Flr_4 Sys-3 Flr-3 Sch-H HPlcmt-south ZN NECB System 3 PSZ Occ Sch Thursday, !- Thursday Schedule:Day Name\n   *************  14835   Sp-PatRoom1_Mult10_Flr_4 Sys-3 Flr-3 Sch-H HPlcmt-south ZN NECB System 3 PSZ Occ Sch Friday, !- Friday Schedule:Day Name\n   *************  14836   Sp-PatRoom1_Mult10_Flr_4 Sys-3 Flr-3 Sch-H HPlcmt-south ZN NECB System 3 PSZ Occ Sch Saturday, !- Saturday Schedule:Day Name\n   *************  14837   Sp-PatRoom1_Mult10_Flr_4 Sys-3 Flr-3 Sch-H HPlcmt-south ZN NECB System 3 PSZ Occ Sch Default, !- Holiday Schedule:Day Name\n   *************  14838   Sp-PatRoom1_Mult10_Flr_4 Sys-3 Flr-3 Sch-H HPlcmt-south ZN NECB System 3 PSZ Occ Sch Summer Design Day, !- SummerDesignDay Schedule:Day Name\n   *************  14839   Sp-PatRoom1_Mult10_Flr_4 Sys-3 Flr-3 Sch-H HPlcmt-south ZN NECB System 3 PSZ Occ Sch Winter Design Day, !- WinterDesignDay Schedule:Day Name\n   ** Warning ** IP: IDF line~14839 Alpha Argument length exceeds maximum, will be truncated=  Sp-PatRoom1_Mult10_Flr_4 Sys-3 Flr-3 Sch-H HPlcmt-south ZN NECB System 3 PSZ Occ Sch Winter Design Da\n   **   ~~~   ** Will be processed as Alpha=SP-PATROOM1_MULT10_FLR_4 SYS-3 FLR-3 SCH-H HPLCMT-SOUTH ZN NECB SYSTEM 3 PSZ OCC SCH WINTER DESIGN DAY\n   ************* IDF Context for following error/warning message:\n   ************* Note -- lines truncated at 300 characters, if necessary...\n   *************  14859 Schedule:Day:Interval,\n   ************* indicated Name=Sp-PatRoom1_Mult10_Flr_4 Sys-3 Flr-3 Sch-H HPlcmt-south ZN NECB System 3 PSZ Occ Sch Summer Design Day\n   ************* Only last 1 lines before error line shown.....\n   *************  14860   Sp-PatRoom1_Mult10_Flr_4 Sys-3 Flr-3 Sch-H HPlcmt-south ZN NECB System 3 PSZ Occ Sch Summer Design Day, !- Name\n   ** Warning ** IP: IDF line~14860 Alpha Argument length exceeds maximum, will be truncated=  Sp-PatRoom1_Mult10_Flr_4 Sys-3 Flr-3 Sch-H HPlcmt-south ZN NECB System 3 PSZ Occ Sch Summer Design Da\n   **   ~~~   ** Will be processed as Alpha=SP-PATROOM1_MULT10_FLR_4 SYS-3 FLR-3 SCH-H HPLCMT-SOUTH ZN NECB SYSTEM 3 PSZ OCC SCH SUMMER DESIGN DAY\n   ************* IDF Context for following error/warning message:\n   ************* Note -- lines truncated at 300 characters, if necessary...\n   *************  14866 Schedule:Day:Interval,\n   ************* indicated Name=Sp-PatRoom1_Mult10_Flr_4 Sys-3 Flr-3 Sch-H HPlcmt-south ZN NECB System 3 PSZ Occ Sch Winter Design Day\n   ************* Only last 1 lines before error line shown.....\n   *************  14867   Sp-PatRoom1_Mult10_Flr_4 Sys-3 Flr-3 Sch-H HPlcmt-south ZN NECB System 3 PSZ Occ Sch Winter Design Day, !- Name\n   ** Warning ** IP: IDF line~14867 Alpha Argument length exceeds maximum, will be truncated=  Sp-PatRoom1_Mult10_Flr_4 Sys-3 Flr-3 Sch-H HPlcmt-south ZN NECB System 3 PSZ Occ Sch Winter Design Da\n   **   ~~~   ** Will be processed as Alpha=SP-PATROOM1_MULT10_FLR_4 SYS-3 FLR-3 SCH-H HPLCMT-SOUTH ZN NECB SYSTEM 3 PSZ OCC SCH WINTER DESIGN DAY\n   ************* IDF Context for following error/warning message:\n   ************* Note -- lines truncated at 300 characters, if necessary...\n   *************  15733 Schedule:Week:Daily,\n   ************* indicated Name=Schedule:Week:Daily {d1b384a6-a49b-4aa9-8c00-ad4d22b9a39e}\n   ************* Only last 10 lines before error line shown.....\n   *************  15734   Schedule:Week:Daily {d1b384a6-a49b-4aa9-8c00-ad4d22b9a39e}, !- Name\n   *************  15735   Sp-PatRoom3_Mult10_Flr_3 Sys-3 Flr-2 Sch-H HPlcmt-east ZN NECB System 3 PSZ Occ Sch Sunday, !- Sunday Schedule:Day Name\n   *************  15736   Sp-PatRoom3_Mult10_Flr_3 Sys-3 Flr-2 Sch-H HPlcmt-east ZN NECB System 3 PSZ Occ Sch Monday, !- Monday Schedule:Day Name\n   *************  15737   Sp-PatRoom3_Mult10_Flr_3 Sys-3 Flr-2 Sch-H HPlcmt-east ZN NECB System 3 PSZ Occ Sch Tuesday, !- Tuesday Schedule:Day Name\n   *************  15738   Sp-PatRoom3_Mult10_Flr_3 Sys-3 Flr-2 Sch-H HPlcmt-east ZN NECB System 3 PSZ Occ Sch Wednesday, !- Wednesday Schedule:Day Name\n   *************  15739   Sp-PatRoom3_Mult10_Flr_3 Sys-3 Flr-2 Sch-H HPlcmt-east ZN NECB System 3 PSZ Occ Sch Thursday, !- Thursday Schedule:Day Name\n   *************  15740   Sp-PatRoom3_Mult10_Flr_3 Sys-3 Flr-2 Sch-H HPlcmt-east ZN NECB System 3 PSZ Occ Sch Friday, !- Friday Schedule:Day Name\n   *************  15741   Sp-PatRoom3_Mult10_Flr_3 Sys-3 Flr-2 Sch-H HPlcmt-east ZN NECB System 3 PSZ Occ Sch Saturday, !- Saturday Schedule:Day Name\n   *************  15742   Sp-PatRoom3_Mult10_Flr_3 Sys-3 Flr-2 Sch-H HPlcmt-east ZN NECB System 3 PSZ Occ Sch Default, !- Holiday Schedule:Day Name\n   *************  15743   Sp-PatRoom3_Mult10_Flr_3 Sys-3 Flr-2 Sch-H HPlcmt-east ZN NECB System 3 PSZ Occ Sch Summer Design Day, !- SummerDesignDay Schedule:Day Name\n   ** Warning ** IP: IDF line~15743 Alpha Argument length exceeds maximum, will be truncated=  Sp-PatRoom3_Mult10_Flr_3 Sys-3 Flr-2 Sch-H HPlcmt-east ZN NECB System 3 PSZ Occ Sch Summer Design Da\n   **   ~~~   ** Will be processed as Alpha=SP-PATROOM3_MULT10_FLR_3 SYS-3 FLR-2 SCH-H HPLCMT-EAST ZN NECB SYSTEM 3 PSZ OCC SCH SUMMER DESIGN DAY\n   ************* IDF Context for following error/warning message:\n   ************* Note -- lines truncated at 300 characters, if necessary...\n   *************  15733 Schedule:Week:Daily,\n   ************* indicated Name=Schedule:Week:Daily {d1b384a6-a49b-4aa9-8c00-ad4d22b9a39e}\n   ************* Only last 10 lines before error line shown.....\n   *************  15735   Sp-PatRoom3_Mult10_Flr_3 Sys-3 Flr-2 Sch-H HPlcmt-east ZN NECB System 3 PSZ Occ Sch Sunday, !- Sunday Schedule:Day Name\n   *************  15736   Sp-PatRoom3_Mult10_Flr_3 Sys-3 Flr-2 Sch-H HPlcmt-east ZN NECB System 3 PSZ Occ Sch Monday, !- Monday Schedule:Day Name\n   *************  15737   Sp-PatRoom3_Mult10_Flr_3 Sys-3 Flr-2 Sch-H HPlcmt-east ZN NECB System 3 PSZ Occ Sch Tuesday, !- Tuesday Schedule:Day Name\n   *************  15738   Sp-PatRoom3_Mult10_Flr_3 Sys-3 Flr-2 Sch-H HPlcmt-east ZN NECB System 3 PSZ Occ Sch Wednesday, !- Wednesday Schedule:Day Name\n   *************  15739   Sp-PatRoom3_Mult10_Flr_3 Sys-3 Flr-2 Sch-H HPlcmt-east ZN NECB System 3 PSZ Occ Sch Thursday, !- Thursday Schedule:Day Name\n   *************  15740   Sp-PatRoom3_Mult10_Flr_3 Sys-3 Flr-2 Sch-H HPlcmt-east ZN NECB System 3 PSZ Occ Sch Friday, !- Friday Schedule:Day Name\n   *************  15741   Sp-PatRoom3_Mult10_Flr_3 Sys-3 Flr-2 Sch-H HPlcmt-east ZN NECB System 3 PSZ Occ Sch Saturday, !- Saturday Schedule:Day Name\n   *************  15742   Sp-PatRoom3_Mult10_Flr_3 Sys-3 Flr-2 Sch-H HPlcmt-east ZN NECB System 3 PSZ Occ Sch Default, !- Holiday Schedule:Day Name\n   *************  15743   Sp-PatRoom3_Mult10_Flr_3 Sys-3 Flr-2 Sch-H HPlcmt-east ZN NECB System 3 PSZ Occ Sch Summer Design Day, !- SummerDesignDay Schedule:Day Name\n   *************  15744   Sp-PatRoom3_Mult10_Flr_3 Sys-3 Flr-2 Sch-H HPlcmt-east ZN NECB System 3 PSZ Occ Sch Winter Design Day, !- WinterDesignDay Schedule:Day Name\n   ** Warning ** IP: IDF line~15744 Alpha Argument length exceeds maximum, will be truncated=  Sp-PatRoom3_Mult10_Flr_3 Sys-3 Flr-2 Sch-H HPlcmt-east ZN NECB System 3 PSZ Occ Sch Winter Design Da\n   **   ~~~   ** Will be processed as Alpha=SP-PATROOM3_MULT10_FLR_3 SYS-3 FLR-2 SCH-H HPLCMT-EAST ZN NECB SYSTEM 3 PSZ OCC SCH WINTER DESIGN DAY\n   ************* IDF Context for following error/warning message:\n   ************* Note -- lines truncated at 300 characters, if necessary...\n   *************  15764 Schedule:Day:Interval,\n   ************* indicated Name=Sp-PatRoom3_Mult10_Flr_3 Sys-3 Flr-2 Sch-H HPlcmt-east ZN NECB System 3 PSZ Occ Sch Summer Design Day\n   ************* Only last 1 lines before error line shown.....\n   *************  15765   Sp-PatRoom3_Mult10_Flr_3 Sys-3 Flr-2 Sch-H HPlcmt-east ZN NECB System 3 PSZ Occ Sch Summer Design Day, !- Name\n   ** Warning ** IP: IDF line~15765 Alpha Argument length exceeds maximum, will be truncated=  Sp-PatRoom3_Mult10_Flr_3 Sys-3 Flr-2 Sch-H HPlcmt-east ZN NECB System 3 PSZ Occ Sch Summer Design Da\n   **   ~~~   ** Will be processed as Alpha=SP-PATROOM3_MULT10_FLR_3 SYS-3 FLR-2 SCH-H HPLCMT-EAST ZN NECB SYSTEM 3 PSZ OCC SCH SUMMER DESIGN DAY\n   ************* IDF Context for following error/warning message:\n   ************* Note -- lines truncated at 300 characters, if necessary...\n   *************  15771 Schedule:Day:Interval,\n   ************* indicated Name=Sp-PatRoom3_Mult10_Flr_3 Sys-3 Flr-2 Sch-H HPlcmt-east ZN NECB System 3 PSZ Occ Sch Winter Design Day\n   ************* Only last 1 lines before error line shown.....\n   *************  15772   Sp-PatRoom3_Mult10_Flr_3 Sys-3 Flr-2 Sch-H HPlcmt-east ZN NECB System 3 PSZ Occ Sch Winter Design Day, !- Name\n   ** Warning ** IP: IDF line~15772 Alpha Argument length exceeds maximum, will be truncated=  Sp-PatRoom3_Mult10_Flr_3 Sys-3 Flr-2 Sch-H HPlcmt-east ZN NECB System 3 PSZ Occ Sch Winter Design Da\n   **   ~~~   ** Will be processed as Alpha=SP-PATROOM3_MULT10_FLR_3 SYS-3 FLR-2 SCH-H HPLCMT-EAST ZN NECB SYSTEM 3 PSZ OCC SCH WINTER DESIGN DAY\n   ************* IDF Context for following error/warning message:\n   ************* Note -- lines truncated at 300 characters, if necessary...\n   *************  16076 Schedule:Week:Daily,\n   ************* indicated Name=Schedule:Week:Daily {3bb66bf3-5c92-4b00-bc3f-201f1962646b}\n   ************* Only last 10 lines before error line shown.....\n   *************  16077   Schedule:Week:Daily {3bb66bf3-5c92-4b00-bc3f-201f1962646b}, !- Name\n   *************  16078   Sp-PatRoom3_Mult10_Flr_4 Sys-3 Flr-3 Sch-H HPlcmt-east ZN NECB System 3 PSZ Occ Sch Sunday, !- Sunday Schedule:Day Name\n   *************  16079   Sp-PatRoom3_Mult10_Flr_4 Sys-3 Flr-3 Sch-H HPlcmt-east ZN NECB System 3 PSZ Occ Sch Monday, !- Monday Schedule:Day Name\n   *************  16080   Sp-PatRoom3_Mult10_Flr_4 Sys-3 Flr-3 Sch-H HPlcmt-east ZN NECB System 3 PSZ Occ Sch Tuesday, !- Tuesday Schedule:Day Name\n   *************  16081   Sp-PatRoom3_Mult10_Flr_4 Sys-3 Flr-3 Sch-H HPlcmt-east ZN NECB System 3 PSZ Occ Sch Wednesday, !- Wednesday Schedule:Day Name\n   *************  16082   Sp-PatRoom3_Mult10_Flr_4 Sys-3 Flr-3 Sch-H HPlcmt-east ZN NECB System 3 PSZ Occ Sch Thursday, !- Thursday Schedule:Day Name\n   *************  16083   Sp-PatRoom3_Mult10_Flr_4 Sys-3 Flr-3 Sch-H HPlcmt-east ZN NECB System 3 PSZ Occ Sch Friday, !- Friday Schedule:Day Name\n   *************  16084   Sp-PatRoom3_Mult10_Flr_4 Sys-3 Flr-3 Sch-H HPlcmt-east ZN NECB System 3 PSZ Occ Sch Saturday, !- Saturday Schedule:Day Name\n   *************  16085   Sp-PatRoom3_Mult10_Flr_4 Sys-3 Flr-3 Sch-H HPlcmt-east ZN NECB System 3 PSZ Occ Sch Default, !- Holiday Schedule:Day Name\n   *************  16086   Sp-PatRoom3_Mult10_Flr_4 Sys-3 Flr-3 Sch-H HPlcmt-east ZN NECB System 3 PSZ Occ Sch Summer Design Day, !- SummerDesignDay Schedule:Day Name\n   ** Warning ** IP: IDF line~16086 Alpha Argument length exceeds maximum, will be truncated=  Sp-PatRoom3_Mult10_Flr_4 Sys-3 Flr-3 Sch-H HPlcmt-east ZN NECB System 3 PSZ Occ Sch Summer Design Da\n   **   ~~~   ** Will be processed as Alpha=SP-PATROOM3_MULT10_FLR_4 SYS-3 FLR-3 SCH-H HPLCMT-EAST ZN NECB SYSTEM 3 PSZ OCC SCH SUMMER DESIGN DAY\n   ************* IDF Context for following error/warning message:\n   ************* Note -- lines truncated at 300 characters, if necessary...\n   *************  16076 Schedule:Week:Daily,\n   ************* indicated Name=Schedule:Week:Daily {3bb66bf3-5c92-4b00-bc3f-201f1962646b}\n   ************* Only last 10 lines before error line shown.....\n   *************  16078   Sp-PatRoom3_Mult10_Flr_4 Sys-3 Flr-3 Sch-H HPlcmt-east ZN NECB System 3 PSZ Occ Sch Sunday, !- Sunday Schedule:Day Name\n   *************  16079   Sp-PatRoom3_Mult10_Flr_4 Sys-3 Flr-3 Sch-H HPlcmt-east ZN NECB System 3 PSZ Occ Sch Monday, !- Monday Schedule:Day Name\n   *************  16080   Sp-PatRoom3_Mult10_Flr_4 Sys-3 Flr-3 Sch-H HPlcmt-east ZN NECB System 3 PSZ Occ Sch Tuesday, !- Tuesday Schedule:Day Name\n   *************  16081   Sp-PatRoom3_Mult10_Flr_4 Sys-3 Flr-3 Sch-H HPlcmt-east ZN NECB System 3 PSZ Occ Sch Wednesday, !- Wednesday Schedule:Day Name\n   *************  16082   Sp-PatRoom3_Mult10_Flr_4 Sys-3 Flr-3 Sch-H HPlcmt-east ZN NECB System 3 PSZ Occ Sch Thursday, !- Thursday Schedule:Day Name\n   *************  16083   Sp-PatRoom3_Mult10_Flr_4 Sys-3 Flr-3 Sch-H HPlcmt-east ZN NECB System 3 PSZ Occ Sch Friday, !- Friday Schedule:Day Name\n   *************  16084   Sp-PatRoom3_Mult10_Flr_4 Sys-3 Flr-3 Sch-H HPlcmt-east ZN NECB System 3 PSZ Occ Sch Saturday, !- Saturday Schedule:Day Name\n   *************  16085   Sp-PatRoom3_Mult10_Flr_4 Sys-3 Flr-3 Sch-H HPlcmt-east ZN NECB System 3 PSZ Occ Sch Default, !- Holiday Schedule:Day Name\n   *************  16086   Sp-PatRoom3_Mult10_Flr_4 Sys-3 Flr-3 Sch-H HPlcmt-east ZN NECB System 3 PSZ Occ Sch Summer Design Day, !- SummerDesignDay Schedule:Day Name\n   *************  16087   Sp-PatRoom3_Mult10_Flr_4 Sys-3 Flr-3 Sch-H HPlcmt-east ZN NECB System 3 PSZ Occ Sch Winter Design Day, !- WinterDesignDay Schedule:Day Name\n   ** Warning ** IP: IDF line~16087 Alpha Argument length exceeds maximum, will be truncated=  Sp-PatRoom3_Mult10_Flr_4 Sys-3 Flr-3 Sch-H HPlcmt-east ZN NECB System 3 PSZ Occ Sch Winter Design Da\n   **   ~~~   ** Will be processed as Alpha=SP-PATROOM3_MULT10_FLR_4 SYS-3 FLR-3 SCH-H HPLCMT-EAST ZN NECB SYSTEM 3 PSZ OCC SCH WINTER DESIGN DAY\n   ************* IDF Context for following error/warning message:\n   ************* Note -- lines truncated at 300 characters, if necessary...\n   *************  16107 Schedule:Day:Interval,\n   ************* indicated Name=Sp-PatRoom3_Mult10_Flr_4 Sys-3 Flr-3 Sch-H HPlcmt-east ZN NECB System 3 PSZ Occ Sch Summer Design Day\n   ************* Only last 1 lines before error line shown.....\n   *************  16108   Sp-PatRoom3_Mult10_Flr_4 Sys-3 Flr-3 Sch-H HPlcmt-east ZN NECB System 3 PSZ Occ Sch Summer Design Day, !- Name\n   ** Warning ** IP: IDF line~16108 Alpha Argument length exceeds maximum, will be truncated=  Sp-PatRoom3_Mult10_Flr_4 Sys-3 Flr-3 Sch-H HPlcmt-east ZN NECB System 3 PSZ Occ Sch Summer Design Da\n   **   ~~~   ** Will be processed as Alpha=SP-PATROOM3_MULT10_FLR_4 SYS-3 FLR-3 SCH-H HPLCMT-EAST ZN NECB SYSTEM 3 PSZ OCC SCH SUMMER DESIGN DAY\n   ************* IDF Context for following error/warning message:\n   ************* Note -- lines truncated at 300 characters, if necessary...\n   *************  16114 Schedule:Day:Interval,\n   ************* indicated Name=Sp-PatRoom3_Mult10_Flr_4 Sys-3 Flr-3 Sch-H HPlcmt-east ZN NECB System 3 PSZ Occ Sch Winter Design Day\n   ************* Only last 1 lines before error line shown.....\n   *************  16115   Sp-PatRoom3_Mult10_Flr_4 Sys-3 Flr-3 Sch-H HPlcmt-east ZN NECB System 3 PSZ Occ Sch Winter Design Day, !- Name\n   ** Warning ** IP: IDF line~16115 Alpha Argument length exceeds maximum, will be truncated=  Sp-PatRoom3_Mult10_Flr_4 Sys-3 Flr-3 Sch-H HPlcmt-east ZN NECB System 3 PSZ Occ Sch Winter Design Da\n   **   ~~~   ** Will be processed as Alpha=SP-PATROOM3_MULT10_FLR_4 SYS-3 FLR-3 SCH-H HPLCMT-EAST ZN NECB SYSTEM 3 PSZ OCC SCH WINTER DESIGN DAY\n   ************* IDF Context for following error/warning message:\n   ************* Note -- lines truncated at 300 characters, if necessary...\n   *************  16981 Schedule:Week:Daily,\n   ************* indicated Name=Schedule:Week:Daily {362e82da-1268-481f-9e83-177332f6fc87}\n   ************* Only last 10 lines before error line shown.....\n   *************  16982   Schedule:Week:Daily {362e82da-1268-481f-9e83-177332f6fc87}, !- Name\n   *************  16983   Sp-PatRoom5_Mult10_Flr_3 Sys-3 Flr-2 Sch-H HPlcmt-north ZN NECB System 3 PSZ Occ Sch Sunday, !- Sunday Schedule:Day Name\n   *************  16984   Sp-PatRoom5_Mult10_Flr_3 Sys-3 Flr-2 Sch-H HPlcmt-north ZN NECB System 3 PSZ Occ Sch Monday, !- Monday Schedule:Day Name\n   *************  16985   Sp-PatRoom5_Mult10_Flr_3 Sys-3 Flr-2 Sch-H HPlcmt-north ZN NECB System 3 PSZ Occ Sch Tuesday, !- Tuesday Schedule:Day Name\n   *************  16986   Sp-PatRoom5_Mult10_Flr_3 Sys-3 Flr-2 Sch-H HPlcmt-north ZN NECB System 3 PSZ Occ Sch Wednesday, !- Wednesday Schedule:Day Name\n   *************  16987   Sp-PatRoom5_Mult10_Flr_3 Sys-3 Flr-2 Sch-H HPlcmt-north ZN NECB System 3 PSZ Occ Sch Thursday, !- Thursday Schedule:Day Name\n   *************  16988   Sp-PatRoom5_Mult10_Flr_3 Sys-3 Flr-2 Sch-H HPlcmt-north ZN NECB System 3 PSZ Occ Sch Friday, !- Friday Schedule:Day Name\n   *************  16989   Sp-PatRoom5_Mult10_Flr_3 Sys-3 Flr-2 Sch-H HPlcmt-north ZN NECB System 3 PSZ Occ Sch Saturday, !- Saturday Schedule:Day Name\n   *************  16990   Sp-PatRoom5_Mult10_Flr_3 Sys-3 Flr-2 Sch-H HPlcmt-north ZN NECB System 3 PSZ Occ Sch Default, !- Holiday Schedule:Day Name\n   *************  16991   Sp-PatRoom5_Mult10_Flr_3 Sys-3 Flr-2 Sch-H HPlcmt-north ZN NECB System 3 PSZ Occ Sch Summer Design Day, !- SummerDesignDay Schedule:Day Name\n   ** Warning ** IP: IDF line~16991 Alpha Argument length exceeds maximum, will be truncated=  Sp-PatRoom5_Mult10_Flr_3 Sys-3 Flr-2 Sch-H HPlcmt-north ZN NECB System 3 PSZ Occ Sch Summer Design Da\n   **   ~~~   ** Will be processed as Alpha=SP-PATROOM5_MULT10_FLR_3 SYS-3 FLR-2 SCH-H HPLCMT-NORTH ZN NECB SYSTEM 3 PSZ OCC SCH SUMMER DESIGN DAY\n   ************* IDF Context for following error/warning message:\n   ************* Note -- lines truncated at 300 characters, if necessary...\n   *************  16981 Schedule:Week:Daily,\n   ************* indicated Name=Schedule:Week:Daily {362e82da-1268-481f-9e83-177332f6fc87}\n   ************* Only last 10 lines before error line shown.....\n   *************  16983   Sp-PatRoom5_Mult10_Flr_3 Sys-3 Flr-2 Sch-H HPlcmt-north ZN NECB System 3 PSZ Occ Sch Sunday, !- Sunday Schedule:Day Name\n   *************  16984   Sp-PatRoom5_Mult10_Flr_3 Sys-3 Flr-2 Sch-H HPlcmt-north ZN NECB System 3 PSZ Occ Sch Monday, !- Monday Schedule:Day Name\n   *************  16985   Sp-PatRoom5_Mult10_Flr_3 Sys-3 Flr-2 Sch-H HPlcmt-north ZN NECB System 3 PSZ Occ Sch Tuesday, !- Tuesday Schedule:Day Name\n   *************  16986   Sp-PatRoom5_Mult10_Flr_3 Sys-3 Flr-2 Sch-H HPlcmt-north ZN NECB System 3 PSZ Occ Sch Wednesday, !- Wednesday Schedule:Day Name\n   *************  16987   Sp-PatRoom5_Mult10_Flr_3 Sys-3 Flr-2 Sch-H HPlcmt-north ZN NECB System 3 PSZ Occ Sch Thursday, !- Thursday Schedule:Day Name\n   *************  16988   Sp-PatRoom5_Mult10_Flr_3 Sys-3 Flr-2 Sch-H HPlcmt-north ZN NECB System 3 PSZ Occ Sch Friday, !- Friday Schedule:Day Name\n   *************  16989   Sp-PatRoom5_Mult10_Flr_3 Sys-3 Flr-2 Sch-H HPlcmt-north ZN NECB System 3 PSZ Occ Sch Saturday, !- Saturday Schedule:Day Name\n   *************  16990   Sp-PatRoom5_Mult10_Flr_3 Sys-3 Flr-2 Sch-H HPlcmt-north ZN NECB System 3 PSZ Occ Sch Default, !- Holiday Schedule:Day Name\n   *************  16991   Sp-PatRoom5_Mult10_Flr_3 Sys-3 Flr-2 Sch-H HPlcmt-north ZN NECB System 3 PSZ Occ Sch Summer Design Day, !- SummerDesignDay Schedule:Day Name\n   *************  16992   Sp-PatRoom5_Mult10_Flr_3 Sys-3 Flr-2 Sch-H HPlcmt-north ZN NECB System 3 PSZ Occ Sch Winter Design Day, !- WinterDesignDay Schedule:Day Name\n   ** Warning ** IP: IDF line~16992 Alpha Argument length exceeds maximum, will be truncated=  Sp-PatRoom5_Mult10_Flr_3 Sys-3 Flr-2 Sch-H HPlcmt-north ZN NECB System 3 PSZ Occ Sch Winter Design Da\n   **   ~~~   ** Will be processed as Alpha=SP-PATROOM5_MULT10_FLR_3 SYS-3 FLR-2 SCH-H HPLCMT-NORTH ZN NECB SYSTEM 3 PSZ OCC SCH WINTER DESIGN DAY\n   ************* IDF Context for following error/warning message:\n   ************* Note -- lines truncated at 300 characters, if necessary...\n   *************  17012 Schedule:Day:Interval,\n   ************* indicated Name=Sp-PatRoom5_Mult10_Flr_3 Sys-3 Flr-2 Sch-H HPlcmt-north ZN NECB System 3 PSZ Occ Sch Summer Design Day\n   ************* Only last 1 lines before error line shown.....\n   *************  17013   Sp-PatRoom5_Mult10_Flr_3 Sys-3 Flr-2 Sch-H HPlcmt-north ZN NECB System 3 PSZ Occ Sch Summer Design Day, !- Name\n   ** Warning ** IP: IDF line~17013 Alpha Argument length exceeds maximum, will be truncated=  Sp-PatRoom5_Mult10_Flr_3 Sys-3 Flr-2 Sch-H HPlcmt-north ZN NECB System 3 PSZ Occ Sch Summer Design Da\n   **   ~~~   ** Will be processed as Alpha=SP-PATROOM5_MULT10_FLR_3 SYS-3 FLR-2 SCH-H HPLCMT-NORTH ZN NECB SYSTEM 3 PSZ OCC SCH SUMMER DESIGN DAY\n   ************* IDF Context for following error/warning message:\n   ************* Note -- lines truncated at 300 characters, if necessary...\n   *************  17019 Schedule:Day:Interval,\n   ************* indicated Name=Sp-PatRoom5_Mult10_Flr_3 Sys-3 Flr-2 Sch-H HPlcmt-north ZN NECB System 3 PSZ Occ Sch Winter Design Day\n   ************* Only last 1 lines before error line shown.....\n   *************  17020   Sp-PatRoom5_Mult10_Flr_3 Sys-3 Flr-2 Sch-H HPlcmt-north ZN NECB System 3 PSZ Occ Sch Winter Design Day, !- Name\n   ** Warning ** IP: IDF line~17020 Alpha Argument length exceeds maximum, will be truncated=  Sp-PatRoom5_Mult10_Flr_3 Sys-3 Flr-2 Sch-H HPlcmt-north ZN NECB System 3 PSZ Occ Sch Winter Design Da\n   **   ~~~   ** Will be processed as Alpha=SP-PATROOM5_MULT10_FLR_3 SYS-3 FLR-2 SCH-H HPLCMT-NORTH ZN NECB SYSTEM 3 PSZ OCC SCH WINTER DESIGN DAY\n   ************* IDF Context for following error/warning message:\n   ************* Note -- lines truncated at 300 characters, if necessary...\n   *************  17324 Schedule:Week:Daily,\n   ************* indicated Name=Schedule:Week:Daily {ff6bde2c-1aca-4595-9840-8cbb715aa444}\n   ************* Only last 10 lines before error line shown.....\n   *************  17325   Schedule:Week:Daily {ff6bde2c-1aca-4595-9840-8cbb715aa444}, !- Name\n   *************  17326   Sp-PatRoom5_Mult10_Flr_4 Sys-3 Flr-3 Sch-H HPlcmt-north ZN NECB System 3 PSZ Occ Sch Sunday, !- Sunday Schedule:Day Name\n   *************  17327   Sp-PatRoom5_Mult10_Flr_4 Sys-3 Flr-3 Sch-H HPlcmt-north ZN NECB System 3 PSZ Occ Sch Monday, !- Monday Schedule:Day Name\n   *************  17328   Sp-PatRoom5_Mult10_Flr_4 Sys-3 Flr-3 Sch-H HPlcmt-north ZN NECB System 3 PSZ Occ Sch Tuesday, !- Tuesday Schedule:Day Name\n   *************  17329   Sp-PatRoom5_Mult10_Flr_4 Sys-3 Flr-3 Sch-H HPlcmt-north ZN NECB System 3 PSZ Occ Sch Wednesday, !- Wednesday Schedule:Day Name\n   *************  17330   Sp-PatRoom5_Mult10_Flr_4 Sys-3 Flr-3 Sch-H HPlcmt-north ZN NECB System 3 PSZ Occ Sch Thursday, !- Thursday Schedule:Day Name\n   *************  17331   Sp-PatRoom5_Mult10_Flr_4 Sys-3 Flr-3 Sch-H HPlcmt-north ZN NECB System 3 PSZ Occ Sch Friday, !- Friday Schedule:Day Name\n   *************  17332   Sp-PatRoom5_Mult10_Flr_4 Sys-3 Flr-3 Sch-H HPlcmt-north ZN NECB System 3 PSZ Occ Sch Saturday, !- Saturday Schedule:Day Name\n   *************  17333   Sp-PatRoom5_Mult10_Flr_4 Sys-3 Flr-3 Sch-H HPlcmt-north ZN NECB System 3 PSZ Occ Sch Default, !- Holiday Schedule:Day Name\n   *************  17334   Sp-PatRoom5_Mult10_Flr_4 Sys-3 Flr-3 Sch-H HPlcmt-north ZN NECB System 3 PSZ Occ Sch Summer Design Day, !- SummerDesignDay Schedule:Day Name\n   ** Warning ** IP: IDF line~17334 Alpha Argument length exceeds maximum, will be truncated=  Sp-PatRoom5_Mult10_Flr_4 Sys-3 Flr-3 Sch-H HPlcmt-north ZN NECB System 3 PSZ Occ Sch Summer Design Da\n   **   ~~~   ** Will be processed as Alpha=SP-PATROOM5_MULT10_FLR_4 SYS-3 FLR-3 SCH-H HPLCMT-NORTH ZN NECB SYSTEM 3 PSZ OCC SCH SUMMER DESIGN DAY\n   ************* IDF Context for following error/warning message:\n   ************* Note -- lines truncated at 300 characters, if necessary...\n   *************  17324 Schedule:Week:Daily,\n   ************* indicated Name=Schedule:Week:Daily {ff6bde2c-1aca-4595-9840-8cbb715aa444}\n   ************* Only last 10 lines before error line shown.....\n   *************  17326   Sp-PatRoom5_Mult10_Flr_4 Sys-3 Flr-3 Sch-H HPlcmt-north ZN NECB System 3 PSZ Occ Sch Sunday, !- Sunday Schedule:Day Name\n   *************  17327   Sp-PatRoom5_Mult10_Flr_4 Sys-3 Flr-3 Sch-H HPlcmt-north ZN NECB System 3 PSZ Occ Sch Monday, !- Monday Schedule:Day Name\n   *************  17328   Sp-PatRoom5_Mult10_Flr_4 Sys-3 Flr-3 Sch-H HPlcmt-north ZN NECB System 3 PSZ Occ Sch Tuesday, !- Tuesday Schedule:Day Name\n   *************  17329   Sp-PatRoom5_Mult10_Flr_4 Sys-3 Flr-3 Sch-H HPlcmt-north ZN NECB System 3 PSZ Occ Sch Wednesday, !- Wednesday Schedule:Day Name\n   *************  17330   Sp-PatRoom5_Mult10_Flr_4 Sys-3 Flr-3 Sch-H HPlcmt-north ZN NECB System 3 PSZ Occ Sch Thursday, !- Thursday Schedule:Day Name\n   *************  17331   Sp-PatRoom5_Mult10_Flr_4 Sys-3 Flr-3 Sch-H HPlcmt-north ZN NECB System 3 PSZ Occ Sch Friday, !- Friday Schedule:Day Name\n   *************  17332   Sp-PatRoom5_Mult10_Flr_4 Sys-3 Flr-3 Sch-H HPlcmt-north ZN NECB System 3 PSZ Occ Sch Saturday, !- Saturday Schedule:Day Name\n   *************  17333   Sp-PatRoom5_Mult10_Flr_4 Sys-3 Flr-3 Sch-H HPlcmt-north ZN NECB System 3 PSZ Occ Sch Default, !- Holiday Schedule:Day Name\n   *************  17334   Sp-PatRoom5_Mult10_Flr_4 Sys-3 Flr-3 Sch-H HPlcmt-north ZN NECB System 3 PSZ Occ Sch Summer Design Day, !- SummerDesignDay Schedule:Day Name\n   *************  17335   Sp-PatRoom5_Mult10_Flr_4 Sys-3 Flr-3 Sch-H HPlcmt-north ZN NECB System 3 PSZ Occ Sch Winter Design Day, !- WinterDesignDay Schedule:Day Name\n   ** Warning ** IP: IDF line~17335 Alpha Argument length exceeds maximum, will be truncated=  Sp-PatRoom5_Mult10_Flr_4 Sys-3 Flr-3 Sch-H HPlcmt-north ZN NECB System 3 PSZ Occ Sch Winter Design Da\n   **   ~~~   ** Will be processed as Alpha=SP-PATROOM5_MULT10_FLR_4 SYS-3 FLR-3 SCH-H HPLCMT-NORTH ZN NECB SYSTEM 3 PSZ OCC SCH WINTER DESIGN DAY\n   ************* IDF Context for following error/warning message:\n   ************* Note -- lines truncated at 300 characters, if necessary...\n   *************  17355 Schedule:Day:Interval,\n   ************* indicated Name=Sp-PatRoom5_Mult10_Flr_4 Sys-3 Flr-3 Sch-H HPlcmt-north ZN NECB System 3 PSZ Occ Sch Summer Design Day\n   ************* Only last 1 lines before error line shown.....\n   *************  17356   Sp-PatRoom5_Mult10_Flr_4 Sys-3 Flr-3 Sch-H HPlcmt-north ZN NECB System 3 PSZ Occ Sch Summer Design Day, !- Name\n   ** Warning ** IP: IDF line~17356 Alpha Argument length exceeds maximum, will be truncated=  Sp-PatRoom5_Mu
[...]
zrz+JX85++nkgPpycn+g5OE1nbfngqBRNJKGIwygRwew2HQdDkZU0iYUTD9PkxQvGGh6Xba/8PFuZnaa41p9cIpnMokBMnSiWp37oJA1HTflbaVc+23ed7dNqzPIU7Zlsfglljh83W+nlKf/Mwj0L9sYbV46cmZ+IaRSmc5h80xRvvt/fHwxOTt5suPAMcIADHOAABzjAAQ5wgAMc4Pw1cUQ8u03/BBauVDuF68wVUSRd0IAGNKABDWhAAxrQgAY0oAFNMc199tWsP9Fc+zMJHOAABzjAAQ5wgAMc4AAHOMCpgvP03kBbvTfwYka9N7BnZ3fYjo93dg4OQApSkIIUpCAFKUhBClKQghSkIAXp6yDtZqROQpF2MtJer9vd3wUpSEEKUpCCFKQgBSlIQQpSkIIUpK+DtKdITyOPIO0eZKS2vbfX64EUpCAFKUhBClKQghSkIAUpSEEK0tdBuqNIP09mFOl+RnqQbv13IAUpSEEKUpCCFKQgBSlIQQpSkIL0dZD2Fenv0qVI9zLS9+8Hg709kIIUpCAFKUhBClKQghSkIAUpSEH6Okh3s08mZpIi3c1IB4PdXZCCFKQgBSlIQQpSkIIUpCAFKUhB+lpI9xTpx5CqLNjtZ6T7+91uvw9SkIIUpCAFKUhBClKQghSkIAUpSGsjXaK4kXPfKHX20E68xJcXE2cq24l8SBpvPoSzKC7HmH975nvvVgaxFwa+jDMPJS62t8Wx6wpHZJ7EvZdMRBzeSuH2Ss6M78ZtZzqVgduwlLa1VXLCcms7SRI1rAerKXY7hifN05O6+ifFydyXC7yWEwwnYZSeb/lyZECb+xiFQdK6l954kigf16Hv6vtY9M3FtPXJSc7D8Hbv6uPMT+zO1akfXe2Ii3nc6on09/TnxXDS+iA+fPKHt0ovTsS/fxW/ngzeqaMSeSt64tPFv8XZcKgOfbNV1MFvt+Nh5E2Tv5PHvN12vbuXzeQ5tLPUl/DcI2uoRv8gbTDHC2R01bX3LZE145HlevHUd+aHXuCntta1Hw6//mjRgKnXxTWIZD5Nz1ctuX3j3DmLvYVnqu3OidRIFUfC9W6nvmwH8v7ibtywvn8Bsil2Op3sR2noKb+ukzip48s/LN+5lr51aLly5KQdK6ZROPJ8aTUXlqsH69Bud5rWnePPZP77UM1Q6TnppDMYnJxYj00tP10mPz0mPztMfvpMfnaZ/Owx+dln8nPA5MfucDniGtE215C2uca0zTWoba5RbXMNa5trXNtcA9vmGtldrpHdZZuruUZ2l2tkd41Gtohnt7crr6zWWtEi6Rq4IdvIzA3ZQmZuyPYxc0PGvZkbMurN3JAxb+aGjHgzN2S8m7mhFzJDP0zjmF7GDP0wjWR6ETP0wzSW6SXM0A/TaKYXMEM/TOOZXr4M/XDNy0zjmV67DP3oj+d7L0jMl61rtUvfD9k8hn7I5jH0QzaPoR8y3A39kOFu6IcMd0M/ZLgb+iHD3dAPvX6ZOuIa0fQKZuqIa0zTa5ipI65RTa9ipo64xjW9jpk64hrZ9Epm6ohtruYa2fRiZupIf2Q/3cMofccwtcx1Vv7QW7yEmEGiu3mJ3uYldjYv0d+8xO7mJfY2L7G/eYmDzUusrOyb0qghvgs+mOXToD/Z4tOgP/Ti06A/6eXToD8E5tOgPx/m06A/OubToD9V5lv/aojzbh3reA0LebeGlbxbbSkvfZWjXlq1eNcjgwTdG2wSdGewSdB9wSZBp1VsEnRaxSZBp1VsEnRaxSZBp1VsEgV3rvk06Ft/fBp0WsWnQadVfBp0WsWnQadVfBp0WsWnQadVfBp0WsWnQadVfOtfDXFecIufT6OGhbwgreLTqLaUl74xSy+tWrxSi0GC7g02Cboz2CTovmCToNMqNgk6rWKToNMqNgk6rWKToNMqNomCtIpPg55u+TTotIpPg06r+DTotIpPg06r+DTotIpPg06r+DTotIpPg06r+Na/GuK8IK3i06hhIS9Iq/g0qi3lpS8m0UurFm8uYZCge4NNgu4MNgm6L9gk6LSKTYJOq9gk6LSKTYJOq9gk6LSKTaIgreLToKdbPg06reLToNMqPg06reLToNMqPg06reLToNMqPg06reLToNMqvvWvhjgvSKv4NGpYyAvSKj6Nakt5af13vbRqUSCeQYLuDTYJujPYJOi+YJOg0yo2CTqtYpOg0yo2CTqtYpOg0yo2iYK0ik+Dnm75NOi0ik+DTqv4NOi0ik+DTqv4NOi0ik+DTqv4NOi0ik+DTqv41r8a4rwgreLTqGEhL0ir+DSqLeWlZXb10qpFHV4GCbo32CTozmCToPuCTYJOq9gk6LSKTYJOq9gk6LSKTYJOq9gkCtIqPg16uuXToNMqPg06reLToNMqPg06reLToNMqPg06reLToNMqPg06reJb/2qI84K0ik+jhoW8IK3i06i2lJdWM9RLqxblDhkk6N5gk6A7g02C7gs2CTqtYpOg0yo2CTqtYpOg0yo2CTqtYpMoLLbGpUFPt3waRYWsuDSKalxxaRSVv+LSKKr5xqVRVA6OS6OoUhyXRlEROS6NovpyXOtfDXFeWJWOS6OGhbwgreLTKF/Kv+hUeM0LOYsjEcj7ZQXZrHBsI74bN7MKsKWlYpfVoGOZvAtngRs3+p2msO1+U/TUb92+XrnZhxTjqci16w6cRI7DaH784MWLaspP169Rcjp1cBa5MjqfqeLG2icqjvkqx0fpxLNILjBUfea83Tdc7htmmGGGGWaYYYYZZphhhhlmmGGGGWaYYYYZZphhhhlmmGGGGWaYYYYZZphhhhlmmGGGGWaYYYYZZphhhhlmmGGGGWaYYYYZ5r+Ued4O72QUea786KgHa+12Z83nVdWjsfHqo7EXMvJknD9eazWXDxBP/TBp+14gSx+RjV96Trf8ydq4nb16fhr6TuKFQQplxYmctq7lKIykpffk8y9yLAN39YIW+xq7naboqSeXO+pBZvXD8uUoUWAlrpdu21djmZwEiWqfVGI0C4YZaWNL/FHiYkkon86+LH2WW23eSDSSiRe346xX9ITU9uykdtp+J85w0vgPsKm3Jb56dDxlz/1eTcPYUw7fp7t1rma5KTcvUEXhvRnSEssLXKnioWU3Dc9ebjdVTxx50lfjrZG36SJOxlE4m0pX/PCD+C7f/9C+mjhx/vy7CrCt59b5i9a0QdrOeHyqNNq+DMbJRLwVXfEPYR37viUOV4+IfW8oGy1767LzZas03r65kjASjZv0Ujo/iptUJh+qua7a97d0xjHvILWpYZz7u7z50v4q5+Lo6GjReNU8Zl7zbr8xvdTldh1J52uVkx8NzzE9XrVXfnVHalirwZCPlKyQQ/vKiWNvHEh3oEpExJdZS36p1pTLjp7O4kmjal+kXXq46M/qkeT7hzpX2VZHVlWJkyj8KvV0FsdWVQqnztBL5npS+cGVryqTWEpV9bKcSFanlSrhYTz5qG0ZzqsTj2gJ29SbSbjpsz42s1VV6/jHspxCbdvb4tNvn8W/zn47Fxdn559//vUn8cvZTz8PxIeT8xM9B6fprC0fHJWiiSQUcRglIpjdpuNgKLKSJrFw4mGavHjBWMPjsu2Vn2crs9MU1/qTSySTWRSIqRPF8tQPnaThqCl/K+3KZ/uus31ajVmeoj2TzS+hzPHjZiu9POWfWbhnwd5448qRM/MTMY3CdA6Tb5rizff7+4PBycmbDReeAQ5wgAMc4AAHOMABDnCAA5y/Jo6IZ7fpn8DClWqncJ25IoqkCxrQgAY0oAENaEADGtCABjSgKaa5z76a9Seaa38mgQMc4AAHOMABDnCAAxzgAAc4VXCe3htoq/cGXsyo9wb27OwO2/Hxzs7BAUhBClKQghSkIAUpSEEKUpCCFKQgfR2k3YzUSSjSTkba63W7+7sgBSlIQQpSkIIUpCAFKUhBClKQgvR1kPYU6WnkEaTdg4zUtvf2ej2QghSkIAUpSEEKUpCCFKQgBSlIQfo6SHcU6efJjCLdz0gP0q3/DqQgBSlIQQpSkIIUpCAFKUhBClKQvg7SviL9XboU6V5G+v79YLC3B1KQghSkIAUpSEEKUpCCFKQgBSlIXwfpbvbJxExSpLsZ6WCwuwtSkIIUpCAFKUhBClKQghSkIAUpSF8L6Z4i/RhSlQW7/Yx0f7/b7fdBClKQghSkIAUpSEEKUpCCFKQgBWltpEsUN3LuG6XOHtqJl/jyYuJMZTuRD0njzYdwFsXlGPNvz3zv3cog9sLAl3HmocTF9rY4dl3hiMyTuPeSiYjDWyncXsmZ8d247UynMnAbltK2tkpOWG5tJ0mihvVgNcVux/CkeXpSV/+kOJn7coHXcoLhJIzS8y1fjgxocx+jMEha99IbTxLl4zr0XX0fi765mLY+Tebx54mMnOn86tSPrnriYh63eiL9vdUVF8NJayA+fPKHt0lrGEZS/PtX8evJ4J06KpG3oic+XfxbnA2H6tA3W0Wd+3Y7HkbeNPk7eczbbde7e9lMnkM7S30Jzz2yhmrkD9LGcrxARldd+8ASWRMeWa4XT31nfugFfmprXfvh8OuPFg2Yel1cg0jm0/R81YrbN86ds9hbeKba7pxIjVJxJFzvdurLdiDvL+7GDev7FyCbYqfTyX6Uhp3y6zqJkzq+/MPynWvpW4eWK0fOzE/ENApHni+t5sJy9WAd2u1O07pz/JnMfx+q2Sk9J51wBoOTE+uxqeWny+Snx+Rnh8lPn8nPLpOfPSY/+0x+Dpj82B0uR1wj2uYa0jbXmLa5BrXNNaptrmFtc41rm2tg21wju8s1srtsczXXyO5yjeyu0cgW8ez2duV11VorWiRdAzdkG5m5IVvIzA3ZPmZuyLg3c0NGvZkbMubN3JARb+aGjHczN/RCZuiHaRzTy5ihH6aRTC9ihn6YxjK9hBn6YRrN9AJm6IdpPNPLl6EfrnmZaTzTa5ehH/3xfO8Fifmyda126fshm8fQD9k8hn7I5jH0Q4a7oR8y3A39kOFu6IcMd0M/ZLgb+qHXL1NHXCOaXsFMHXGNaXoNM3XENarpVczUEde4ptcxU0dcI5teyUwdsc3VXCObXsxMHemP7Kf7F6XvF9b7vHHxAmIGCfqvWzYJ+u9eNgn6L2I2CfpTIDYJ+vMhNgn6kyM2CfozJTYJ+tMmNomCj1j5NGqI74IPZvk0aojwgo9z+TRqiPGCD4H5NGqI8oKPjvk0aojzgg+c+TTqWMdriPOCT7D5NKrFeelrHPXSqsV7Hhkk6N5gk6A7g02C7gs2CXrKZZOgZ1w2CXrCZZOg51s2CXq6ZZMoSKv4NGqI74K0ik+jhggvSKv4NGqI8YK0ik+jhigvSKv4NGqI84K0ik+jjnW8hjgvSKv4NKrFeenbsvTSqsXrtBgk6N5gk6A7g02C7gs2CXrKZZOgZ1w2CXrCZZOg51s2CXq6ZZMoSKv4NGqI74K0ik+jhggvSKv4NGqI8YK0ik+jhigvSKv4NGqI84K0ik+jjnW8hjgvSKv4NKrFeelLSfTSqsVbSxgk6N5gk6A7g02C7gs2CXrKZZOgZ1w2CXrCZZOg51s2CXq6ZZMoSKv4NGqI74K0ik+jhggvSKv4NGqI8YK0ik+jhigvSKv4NGqI84K0ik+jjnW8hjgvSKv4NKrFeWntd720alEcnkGC7g02Cboz2CTovmCToKdcNgl6xmWToCdcNgl6vmWToKdbNomCtIpPo4b4Lkir+DRqiPCCtIpPo4YYL0ir+DRqiPKCtIpPo4Y4L0ir+DTqWMdriPOCtIpPo1qcl5bY1UurFjV4GSTo3mCToDuDTYLuCzYJesplk6BnXDYJesJlk6DnWzYJerplkyhIq/g0aojvgrSKT6OGCC9Iq/g0aojxgrSKT6OGKC9Iq/g0aojzgrSKT6OOdbyGOC9Iq/g0qsV5aSVDvbRqUeqQQaKozg2TRFEFHCaJoto4TBJF9aCYJIoqRTFJFNWQYpIoqi7FJFFUd4pJorDYGpdGDfFdWKKNS6OGCC8s7MalUUOMF5aD49KoIcoLi8hxadQQ54Wl57g06ljHa4jzwlp2XBrlcf5Fp8JrXsRZHIlA3i8ryGaFYxvx3biZVYAtLRW7rAQdy+RdOAvcuNHvNIVt95uip37r9vXKzT6kGE8Frl134CRyHEbz4wcvXlRSfrp+jXLTqYOzyJXR+UwVNtY+UXHMVzk+SieeRXKBoWoz5+2+4VLfMMMMM8wwwwwzzDDDDDPMMMMMM8wwwwwzzDDDDDPMMMMMM8wwwwwzzDDDDDPMMMMMM8wwwwwzzDDDDDPMMMMMM8wwwwwzzDD/pczzdngno8hz5UdHPVhrtztrPq+qHo2NVx+NvZCRJ+P88VqruXyAeOqHSdv3Aln6iGz80nO65U/Wxu3s1fPT0HcSLwxSKCtO5LR1LUdhJC29J59/kWMZuKsXtNjX2O00RU89udxRDzKrH5YvR4kCK3G9dNu+GsvkJEhU+6QSo1kwzEgbW+KPEhdLQvl09mXps9xq80aikUy8uB1nvaInpLZnJ7XT9jtxhpPGf4BNvS3x1aPjKXvu92oaxp5y+D7drXM1y025eYEqCu/NkJZYXuBKFQ8tu2l49nK7qXriyJO+Gm+NvE0XcTKOwtlUuuKHH8R3+f6H9tXEifPn31WAbT23zl+0pg3SdsbjU6XR9mUwTibireiKfwjr2Pctcbh6ROx7Q9lo2VuXnS9bpfH2zZWEkWjcpJfS+VHcpDL5UM111b6/pTOOeQepTQ3j3N/lzZf2VzkXR0dHi8ar5jHzmnf7jemlLrfrSDpfq5z8aHiO6fGqvfKrO1LDWg2GfKRkhRzaV04ce+NAugNVIiK+zFryS7WmXHb0dBZPGlX7Iu3Sw0V/Vo8k3z/Uucq2OrKqSpxE4Vepp7M4tqpSOHWGXjLXk8oPrnxVmcRSqqqX5USyOq1UCQ/jyUdty3BenXhES9im3kzCTZ/1sZmtqlrHP5blFGrb3haffvss/nX227m4ODv//POvP4lfzn76eSA+nJyf6Dk4TWdt+eCoFE0koYjDKBHB7DYdB0ORlTSJhRMP0+TFC8YaHpdtr/w8W5mdprjWn1wimcyiQEydKJanfugkDUdN+VtpVz7bd53t02rM8hTtmWx+CWWOHzdb6eUp/8zCPQv2xhtXjpyZn4hpFKZzmHzTFG++398fDE5O3my48AxwgAMc4AAHOMABDnCAAxzg/DVxRDy7Tf8EFq5UO4XrzBVRJF3QgAY0oAENaEADGtCABjSgAU0xzX321aw/0Vz7Mwkc4AAHOMABDnCAAxzgAAc4wKmC8/TeQFu9N/BiRr03sGdnd9iOj3d2Dg5AClKQghSkIAUpSEEKUpCCFKQgBenrIO1mpE5CkXYy0l6v293fBSlIQQpSkIIUpCAFKUhBClKQghSkr4O0p0hPI48g7R5kpLa9t9frgRSkIAUpSEEKUpCCFKQgBSlIQQrS10G6o0g/T2YU6X5GepBu/XcgBSlIQQpSkIIUpCAFKUhBClKQgvR1kPYV6e/SpUj3MtL37weDvT2QghSkIAUpSEEKUpCCFKQgBSlIQfo6SHezTyZmkiLdzUgHg91dkIIUpCAFKUhBClKQghSkIAUpSEH6Wkj3FOnHkKos2O1npPv73W6/D1KQghSkIAUpSEEKUpCCFKQgBSlIayNdoriRc98odfbQTrzElxcTZyrbiXxIGm8+hLMoLseYf3vme+9WBrEXBr6MMw8lLra3xbHrCkdknsS9l0xEHN5K4fZKzozvxm1nOpWB27CUtrVVcsJyaztJEjWsB6spdjuGJ83Tk7r6J8XJ3JcLvJYTDCdhlJ5v+XJkQJv7GIVB0rqX3niSKB/Xoe/q+1j0zcW0de64Xjoyx/OrUz+62hEX87jVE+nv6c+L4aT1QXz45A9vk9YwjKT496/i15PBO3VUIm9FT3y6+Lc4Gw7VoW+2irr27XY8jLxp8nfymLfbrnf3spk8h3aW+hKee2QN1bgfpE3leIGMrrrdjiWyBjyyXC+e+s780Av81Na69sPh1x8tGjD1urgGkcyn6fmqDbdvnDtnsbfwTLXdOZEao+JIuN7t1JftQN5f3I0b1vcvQDbFTqeT/SgNOuXXdRIndXz5h+U719K3Di1XjpyZn4hpFI48X1rNheXqwTq0252mdef4M2kd9vvt3sGzrddvWkM1VaUu0tlnMDg5sR6bWm67m3Hb24zbnc247W/G7e5m3O5txu3+ZtwebMat3dmQ3w3Fmb2hQLM3FGn2hkLN3lCs2RsKNntD0WZvKNzsDcVbd0Px1t3UuraheOtuKN6668SbiGe3tysvBa+SOUTSNfCq275mXnVb18yrbtuaedWdycy86s5jZl51ZzEzr7pzmJlX3RnMzKt2wmDodjPRpZ0uGLrdTHxpJwuGbjcTYdqpgqHbzcSYdqJg6HYzUaadJhi63dAatpko084RDN1WjrJ7L0jWTg+u1RH6bnWb1tCtbtMautVtWkO3uhOYoVvdCczQre4EZuhWdwIzdKs7gRm61c4TTP1uKM60MwVTvxuKNO1cwdTvhmJNO1sw9buhaNPOF0z9bijetDMGU7+bWtc2FG/aSYOpX7N4+6Jz4yK/MymORCDvlzdGsvshjfhu3MxubJTeAVne3oxl8i6cBW7c6Heawrb7TdFTv3X7endRHlKMp7u2rjtwEjkOo/nxgxcvbg8+tYXGPdTUwVnkyuh8pu7WaZ+oOOarHB+lE88iucBQNxzzPlj3rnB2Q2pV6kJGnoxz3FQp75CpHyZtdZesVDJ+6brLSeN2NvCmoe8kXhikUFacyGnrWo7CSFp6I+kXOZaBu3pBi32N3XQU9NRIUDfVbPUjv+laej966bZ9NZbJSZCo9kklRrNgmJE2tsQfGnddFaF8OvuyNDbU5o1EI5l4cTqu1Xl6Qmp7dlI7bb8TZzhp/AfY1NsSP7/HmPu9moaxpxy+T3frXM1yU25eoIrCezOkJZYXuFIFbstuGp693G6qnjjypK/GWyNv00WcjKNwNpWu+OEH8V2+/6F9NXHifD5RAbb13Dp/0Zo2SNsZj0+VRtuXwTiZiLeiK/4hrGPft8Th6hGx7w1lo2VvXXa+bJXG2zdXEkaicZNeSudHcZPK5EM111X7/nYkbPMOUpsaxrm/y5sv7a8ynd6OjhaNV81j5jXv9hvTS11u15F0vlY5+dHwHNPjVXvlV3ekhrUaDPlIyRbG9tXiG0XSzb5TFF9mLfmlWlMuO3o6iyeNqn2Rdunhoj+rR5LvH+pcZVsdWVUlTqLwq9TTWRxbVSmcOkMvmetJ5QdXvqpMYilV1ctyIlmdVqqEh/Hko7ZlOK9OPKIlbFNvJuGmz/rYzFZVreMfy3IKtW1vi0+/fRb/OvvtXFycnX/++defxC9nP/08EB9Ozk/0HJyms7Z8cFSKJpJQxGGaSAez23QcDEWWIsbCiYdp8uIFYw2Py7ZXfp6tzE5TXOtPLpFMZlEgpk4Uy1M/dJKGo6b8rbQrn+27zvZpNWZ5ivZMNr+EMseP/4Vvfv7pjm3+9U51A/a/8kVU4AAHOMABDnCAAxzgAAc4wHn1ON9+80URRdIFDWhAAxrQgAY0oAENaEADGtAU03zznUBFo77iBxzgAAc4wAEOcIADHOAABzjA+S/WW/wsb6cycpJZJEXjdAsVF/+3Ki7OplN/Lo69SKiOeiU1E+3XUDPRRs1E49IGqJlo7hY1E1Ez0by0AWomVvOLmomomYiaiaiZiJqJqJn4klvUTETNRNRMNE4TUDPR3C1qJqJmImommqYJqJlYzS9qJqJmImomombiCzcuUDPxBQ7UTETNRIGaiXpYqJmImolVNtRMVBtqJqJmYrahZmLxkaiZWO5AbaiZ+DpKiwAHOMABDnCAAxzgAAc4wAHOq8f5H6s4AhrQgAY0oAENaEADGtCABjSvh+b/m0onwAEOcIADHOAABzjAAQ5wgFNdDzUTX95QM3FRM1HYr6RqYvc1VE3s1lY1Mfu9ankmJj89Jj87TH76TH52mfzsMfnZZ/JzwORnparAWo64RrTNNaRtrjFtcw1qm2tU21zD2uYa1zbXwLa5RnaXa2R32eZqrpHd5RrZXaORrV/Nb8VV9fJ9a7ghW6h6gb413JBxX70E3xpuyJivXmRvDTdkvK9RRm8dP0zjmF7G1qiMt44fpqFMr2FrFLtbxw/TaKYXsDXq160zDzKNZ3r1WqMk3Tp+mMYzvXRVrzK34maNsnLr+CGbZ43Ccev4IcN9jdJw6/ghw32N4m/r+CHDfZ3ybms54hrR9Aq2TsW2tRxxDWp6EVunCNtajrjGNb2OrVNXba2ZkWtk00vZOqXS1nLENbLp1ewbR58iL4y8ZC5s0RKNi1mwpepQ7bb+rxO0OnYr+/29HLZ6NrXMdVb+0Ds+3tk5OGCQ6G5eord5iZ3NS/Q3L7G7eYm9zUvsb17iYPMSKyv7pjRqiG+7hgC3a4hwu4YQt2uIcbuGILdriHK7hjC3a4jzbg1x3q1jHa8hzrs1xHm3Wpx3Mw0noTQ6emlVr9ft7u8ySNC9wSZBdwabBN0XbBL0lMsmQc+4bBL0hMsmQc+3bBL0dMsmUZBW8WnUEN8FaRWfRg0RXpBW8WnUEOMFaRWfRg1RXpBW8WnUEOcFaRWfRh3reA1xXpBW8WlUi/Oe0jiNPEKje6CXVtn23l6vxyBB9wabBN0ZbBJ0X7BJ0FMumwQ947JJ0BMumwQ937JJ0N+NYpMo+EIgnwb9jSo+DfrLVnwa9Pew+DTor2jxadDfS+TToL+yyKdBf5uRT4P+oiOfRg1xXpBW8WnUsY7XsJAXpFV8GtWW8h2l8XkyozT29dIq9c6l/jsGCbo32CTozmCToPuCTYJOq9gk6LSKTYJOq9gk6LSKTYKebtkkCtIqPg06reLToNMqPg06reLToNMqPg06reLToNMqPg06reLToNMqPo0a4rwgreLTqGMdr2EhL0ir+DSqLeV9pfG7dCmNPb206v37wWBvj0GC7g02Cboz2CTovmCToNMqNgk6rWKToNMqNgk6rWKToKdbNomCtIpPg06r+DTotIpPg06r+DTotIpPg06r+DTotIpPg06r+DTotIpPo4Y4L0ir+DTqWMdrWMgL0io+jWpL+W6Wus0kpbGrl1YNBru7LBJ0b7BJ0J3BJkH3BZsEnVaxSdBpFZsEnVaxSdBpFZsEPd2ySRSkVXwadFrFp0GnVXwadFrFp0GnVXwadFrFp0GnVXwadFrFp0GnVXwaNcR5QVrFp1HHOl7DQl6QVvFpVFvK95TGx5D6Wny3r5dW7e93u/0+gwTdG2wSdGewSdB9wSZBp1VsEnRaxSZBp1VsEnRaxSZRVHeKSaKw2BqXRlG1Ki6NokJWXBpFNa64NIrKX3FpFNV849IoKgfHpVFUKY5Lo6iIHJdGDXFekFbxadSxjtewkBekVXwa5Uv5F50Kr3khZnEkAnm/rCCbFY5txHfjZlYBtrRU7LKacyyTd+EscONGv9MUtt1vip76rdvXKzf7kGI8VaJ23YGTyHEYzY8fvHhRC/np+jVKRqcOziJXRuczVZpY+0TFMV/l+CideBbJBYaqrpy3+4ZrcsMMM8wwwwwzzDDDDDPMMMMMM8wwwwwzzDDDDDPMMMMMM8wwwwwzzDDDDDPMMMMMM8wwwwwzzDDDDDPMMMMMM8wwwwwzzDDD/Jcyz9vhnYwiz5UfHfVgrd3urPm8qno0Nl59NPZCRp6M88drrebyAeKpHyZt3wtk6SOy8UvP6ZY/WRu3s1fPT0PfSbwwSKGsOJHT1rUchZG09J58/kWOZeCuXtBiX2O30xQ99eRyRz3IrH5YvhwlCqzE9dJt+2osk5MgUe2TSoxmwTAjbWyJP0pcLAnl09mXpc9yq80biUYy8eJ2nPWKnpDanp3UTtvvxBlOGv8BNvW2xFePjqfsud+raRh7yuH7dLfO1Sw35eYFqii8N0NaYnmBK1U8tOym4dnL7abqiSNP+mq8NfI2XcTJOApnU+mKH34Q3+X7H9pXEyfOn39XAbb13Dp/0Zo2SNsZj0+VRtuXwTiZiLeiK/4hrGPft8Th6hGx7w1lo2VvXXa+bJXG2zdXEkaicZNeSudHcZPK5EM111X7/pbOOOYdpDY1jHN/lzdf2l/lXBwdHS0ar5rHzGve7Teml7rcriPpfK1y8qPhOabHq/bKr+5IDWs1GPKRkhVyaF85ceyNA+kOVImI+DJryS/VmnLZ0dNZPGlU7Yu0Sw8X/Vk9knz/UOcq2+rIqipxEoVfpZ7O4tiqSuHUGXrJXE8qP7jyVWUSS6mqXpYTyeq0UiU8jCcftS3DeXXiES1hm3ozCTd91sdmtqpqHf9YllOobXtbfPrts/jX2W/n4uLs/PPPv/4kfjn76eeB+HByfqLn4DSdteWDo1I0kYQiDqNEBLPbdBwMRVbSJBZOPEyTFy8Ya3hctr3y82xldpriWn9yiWQyiwIxdaJYnvqhkzQcNeVvpV35bN91tk+rMctTtGey+SWUOX7cbKWXp/wzC/cs2BtvXDlyZn4iplGYzmHyTVO8+X5/fzA4OXmz4cIzwAEOcIADHOAABzjAAQ5wgPPXxBHx7Db9E1i4Uu0UrjNXRJF0QQMa0IAGNKABDWhAAxrQgAY0xTT32Vez/kRz7c8kcIADHOAABzjAAQ5wgAMc4ACnCs7TewNt9d7Aixn13sCend1hOz7e2Tk4AClIQQpSkIIUpCAFKUhBClKQghSkr4O0m5E6CUXayUh7vW53fxekIAUpSEEKUpCCFKQgBSlIQQpSkL4O0p4iPY08grR7kJHa9t5erwdSkIIUpCAFKUhBClKQghSkIAUpSF8H6Y4i/TyZUaT7GelBuvXfgRSkIAUpSEEKUpCCFKQgBSlIQQrS10HaV6S/S5ci3ctI378fDPb2QApSkIIUpCAFKUhBClKQghSkIAXp6yDdzT6ZmEmKdDcjHQx2d0EKUpCCFKQgBSlIQQpSkIIUpCAF6Wsh3VOkH0OqsmC3n5Hu73e7/T5IQQpSkIIUpCAFKUhBClKQghSkIK2NdIniRs59o9TZQzvxEl9eTJypbCfyIWm8+RDOorgcY/7tme+9WxnEXhj4Ms48lLjY3hbHrisckXkS914yEXF4K4XbKzkzvhu3nelUBm7DUtrWVskJy63tJEnUsB6sptjtGJ40T0/q6p8UJ3NfLvBaTjCchFF6vuXLkQFt7mMUBknrXnrjSaJ8XIe+q+9j0Tf/PP7nooHP5UQ6ibDF2XAoLoaTN1tF3fR2Ox5G3jT5O3nM223Xu3vZTJ5DO0t9Cc89soZqDA/Sy3a8QEZX3W7PElljHFmuF099Z37oBX5qa1374fDrjxYNmHpdXINI5tP0fNUe2zfOnbPYW3im2u6cSI03cSRc73bqy3Yg7y/uxg3r+xcgm2Kn08l+lAaQ8us6iZM6vvzD8p1r6VuHlitHzsxPxDQKR54vrebCcvVgHdrtTtO6c/yZzH8fqnkmPSedOgaDkxPrsanlp8vkp8fkZ4fJT5/Jzy6Tnz0mP/tMfg6Y/NgdLkdcI9rmGtI215i2uQa1zTWqba5hbXONa5trYNtcI7vLNbK7bHM118juco3srtHIFvHs9nblxdNaK1okXQM3ZBuZuSFbyMwN2T5mbsi4N3NDRr2ZGzLmzdyQEW/mhox3Mzf0Qmboh2kc08uYoR+mkUwvYoZ+mMYyvYQZ+mEazfQCZuiHaTzTy5ehH655mWk802uXoR/98XzvBYn5snWtdun7IZvH0A/ZPIZ+yOYx9EOGu6EfMtwN/ZDhbuiHDHdDP2S4G/qh1y9TR1wjml7BTB1xjWl6DTN1xDWq6VXM1BHXuKbXMVNHXCObXslMHbHN1Vwjm17MTB3pj+ynOxGlbwqmlrnOyh96i1cJM0h0Ny/R27zEzuYl+puX2N28xN7mJfY3L3GweYmVlX1TGjXEt11DgNs1RLhdQ4jbNcS4XUOQ2zVEuV1DmNs1xHm3hjjv1rGO1xDn3RrivFstzktfyKiXVi3e2MggQfcGmwTdGWwSdF+wSdBTLpsEPeOySdATLpsEPd+ySdDTLZtEQVrFp1FDfBekVXwaNUR4QVrFp1FDjBekVXwaNUR5QVrFp1FDnBekVXwadazjNcR5QVrFp1Etzkvfe6WXVi1ejMUgQfcGmwTdGWwSdF+wSdBTLpsEPeOySdATLpsEPd+ySdDfjWKTKPhCIJ8G/Y0qPg36y1Z8GvT3sPg06K9o8WnQ30vk06C/ssinQX+bkU+D/qIjn0YNcV7w9Ug+jRrivOBLlXwaNazkBWlVkUbp60X00qrF+0cYJOi0ik2C7gw2Cbov2CTotIpNgk6r2CTotIpNgk6r2CTo6ZZNoiCt4tOgp1s+DXq65dOg0yo+DTqt4tOg0yo+DTqt4tOg0yo+DTqt4tOoIc4L0io+jRrivCCt4tOoYSUvSKuKNEqruOulVYsy7wwSdFrFJkF3BpsE3RdsEnRaxSZBp1VsEnRaxSZBp1VsEvR0yyZRkFbxadDTLZ8GPd3yadBpFZ8GnVbxadBpFZ8GnVbxadBpFZ8GnVbxadQQ5wVpFZ9GDXFekFbxadSwkhekVUUapcVy9dKqRTVdBgk6rWKToDuDTYLuCzYJOq1ik6DTKjYJOq1ik6DTKjYJerplkyhIq/g06OmWT4Oebvk06LSKT4NOq/g06LSKT4NOq/g06LSKT4NOq/g0aojzgrSKT6OGOC9Iq/g0aljJC9KqIo3SmoR6adWiaCGDBJ1WsUnQncEmQfcFmwSdVrFJ0GkVmwSdVrFJ0GkVm0RR3SkmicJia1wa9HTLp1FUyIpLo6jGFZdGUfkrLo2imm9cGkXl4Lg0iirFcWkUFZHj0qghzgtLz3Fp1BDnhQXruDRqWMkL0qqlxhedCq95OWZxJAJ5v6wgmxWObcR342ZWAba0VOyypnMsk3fhLHDjRr/TFLbdb4qe+q3b1ys3+5BiPJWqdt2Bk8hxGM2PH7x4URP56fo1CkenDs4iV0bnM1WiWPtExTFf5fgonXgWyQWGqrKct/uGi3bDDDPMMMMMM8wwwwwzzDDDDDPMMMMMM8wwwwwzzDDDDDPMMMMMM8wwwwwzzDDDDDPMMMMMM8wwwwwzzDDDDDPMMMMMM8www/yXMs/b4Z2MIs+VHx31YK3d7qz5vKp6NDZefTT2QkaejPPHa63m8gHiqR8mbd8LZOkjsvFLz+mWP1kbt7NXz09D30m8MEihrDiR09a1HIWRtPSefP5FjmXgrl7QYl9jt9MUPfXkckc9yKx+WL4cJQqsxPXSbftqLJOTIFHtk0qMZsEwI21siT9KXCwJ5dPZl6XPcqvNG4lGMvHidpz1ip6Q2p6d1E7b78QZThr/ATb1tsRXj46n7Lnfq2kYe8rh+3S3ztUsN+XmBaoovDdDWmJ5gStVPLTspuHZy+2m6okjT/pqvDXyNl3EyTgKZ1Ppih9+EN/l+x/aVxMnzp9/VwG29dw6f9GaNkjbGY9PlUbbl8E4mYi3oiv+Iaxj37fE4eoRse8NZaNlb112vmyVxts3VxJGonGTXkrnR3GTyuRDNddV+/6WzjjmHaQ2NYxzf5c3X9pf5VwcHR0tGq+ax8xr3u03ppe63K4j6XytcvKj4Tmmx6v2yq/uSA1rNRjykZIVcmhfOXHsjQPpDlSJiPgya8kv1Zpy2dHTWTxpVO2LtEsPF/1ZPZJ8/1DnKtvqyKoqcRKFX6WezuLYqkrh1Bl6yVxPKj+48lVlEkupql6WE8nqtFIlPIwnH7Utw3l14hEtYZt6Mwk3fdbHZraqah3/WJZTqG17W3z67bP419lv5+Li7Pzzz7/+JH45++nngfhwcn6i5+A0nbXlg6NSNJGEIg6jRASz23QcDEVW0iQWTjxMkxcvGGt4XLa98vNsZXaa4lp/colkMosCMXWiWJ76oZM0HDXlb6Vd+WzfdbZPqzHLU7RnsvkllDl+3Gyll6f8Mwv3LNgbb1w5cmZ+IqZRmM5h8k1TvPl+f38wODl5s+HCM8ABDnCAAxzgAAc4wAEOcIDz18QR8ew2/RNYuFLtFK4zV0SRdEEDGtCABjSgAQ1oQAMa0IAGNMU099lXs/5Ec+3PJHCAAxzgAAc4wAEOcIADHOAApwrO03sDbfXewIsZ9d7Anp3dYTs+3tk5OAApSEEKUpCCFKQgBSlIQQpSkIIUpK+DtJuROglF2slIe71ud38XpCAFKUhBClKQghSkIAUpSEEKUpC+DtKeIj2NPIK0e5CR2vbeXq8HUpCCFKQgBSlIQQpSkIIUpCAFKUhfB+mOIv08mVGk+xnpQbr134EUpCAFKUhBClKQghSkIAUpSEEK0tdB2lekv0uXIt3LSN+/Hwz29kAKUpCCFKQgBSlIQQpSkIIUpCAF6esg3c0+mZhJinQ3Ix0MdndBClKQghSkIAUpSEEKUpCCFKQgBelrId1TpB9DqrJgt5+R7u93u/0+SEEKUpCCFKQgBSlIQQpSkIIUpCCtjXSJ4kbOfaPU2UM78RJfXkycqWwn8iFpvPkQzqK4HGP+7ZnvvVsZxF4Y+DLOPJS42N4Wx64rHJF5EvdeMhFxeCuF2ys5M74bt53pVAZuw1La1lbJCcut7SRJ1LAerKbY7RieNE9P6uqfFCdzXy7wWk4wnIRRer7ly5EBbe5jFAZJ615640mifFyHvqvvY9E3/zz+56KBz+VEOok4Gw7FxXDyZquok95ux8PImyZ/J495u+16dy+byXNoZ6kv4blH1lCN4EF60Y4XyOiq292xRNYUR5brxVPfmR96gZ/aWtd+OPz6o0UDpl4X1yCS+TQ9X7XG9o1z5yz2Fp6ptjsnUqNNHAnXu536sh3I+4u7ccP6/gXIptjpdLIfpeGj/LpO4qSOL/+wfOda+tah5cqRM/MTMY3CkedLq7mwXD1Yh3a707TuHH8mrcPdg/bBs23/oGkN1ZyTekinkcHg5MR6bGp57W7Ea28jXnc24rW/Ea+7G/G6txGv+xvxerARr3ZnM243E132ZsLL3kx82ZsJMHszEWZvJsTszcSYvZkgszcTZd3NRFl3Q2vYZqKsu5ko664RZSKe3d6uvMa7QoYQSdfAqWbbmjnVbFkzp5rtauZUc+4yc6o5c5k51Zy3zJxqzlpmTjXnLDOnuomBodeNxJRuWmDodSNRpZsUGHrdSFzppgSGXjcSWboJgaHXjcSWbjpg6HUz69VGYks3FzD0WjW27r0gWTcNuFYH6HvVbFZDr5rNauhVs1kNvWpOWYZeNacsQ6+aU5ahV80py9Cr5pRl6FU3HzB1u5no0s0ITN1uJr50cwJTt5uJMN2swNTtZmJMNy8wdbuZKNPNDEzdbmgN20yU6SYHpm6NouyLzg2H/N6gOBKBvF/e0MjuYzTiu3EzuyFReudieYMxlsm7cBa4caPfaQrb7jdFT/3W7evd/XhIMZ7um7ruwEnkOIzmxw9evLhB99QUGncxUwdnkSuj85m6X6Z9ouKYr3J8lE48i+QCQ93yy7tg3fuy2Y2kVakLGXkyznFTpbxDpn6YtNXdrVLJ+KXrLieN29m4m4a+k3hhkEJZcSKnrWs5CiNp6Y2kX+RYBu7qBS32NXbTUdBTI0HdDLPVj/y2Z+kd4aXb9tVYJidBotonlRjNgmFG2tgSf2jc91SE8unsy9LYUJs3Eo1k4sXpuFbn6Qmp7dlJ7bT9TpzhpPEfYFNvS/z83mDu92oaxp5y+D7drXM1y025eYEqCu/NkJZYXuBKFbgtu2l49nK7qXriyJO+Gm+NvE0XcTKOwtlUuuKHH8R3+f6H9tXEifP5RAXY1nPr/EVr2iBtZzw+VRptXwbjZCLeiq74h7COfd8Sh6tHxL43lI2WvXXZ+bJVGm/fXEkYicZNeimdH8VNKpMP1VxX7fvbkbDNO0htahjn/i5vvrS/ynR6OzpaNF41j5nXvNtvTC91uV1H0vla5eRHw3NMj1ftlV/dkRrWajDkIyVbGNtXi+/0SDf7Vk98mbXkl2pNuezo6SyeNKr2Rdqlh4v+rB5Jvn+oc5VtdWRVlTiJwq9ST2dxbFWlcOoMvWSuJ5UfXPmqMomlVFUvy4lkdVqpEh7Gk4/aluG8OvGIlrBNvZmEmz7rYzNbVbWOfyzLKdS2vS0+/fZZ/Ovst3NxcXb++edffxK/nP3080B8ODk/0XNwms7a8sFRKZpIQhGHaSIdzG7TcTAUWYoYCycepsmLF4w1PC7bXvl5tjI7TXGtP7lEMplFgZg6USxP/dBJGo6a8rfSrny27zrbp9WY5SnaM9n8EsocP/4Xvnv5pxuw+Rcs1Q3V/8pXQYEDHOAABzjAAQ5wgAMc4ADn1eN8+wUXRRRJFzSgAQ1oQAMa0IAGNKABDWhAU0zzzVcCFY36ih9wgAMc4AAHOMABDnCAAxzgAOe/WPHws7ydyshJZpEUjdMt1Dz8n6p5+LujRtwHmf1zfHvtySARqstU5UPpztL2b4m9zukrKYLYfw1FEPu1FUHMHj2tWoSJyU+Pyc8Ok58+k59dJj97TH72mfwcMPlZqS6wliOuEW1zDWmba0zbXIPa5hrVNtewtrnGtc01sG2ukd3lGtldtrmaa2R3uUZ212hk6xftW3FVvUzfGm7IFqpeim8NN2TcVy+3t4YbMuarl9Rbww0Z72uUzVvHD9M4ppexNYrhreOHaSjTa9gaJe7W8cM0mukFbI3CdevMg0zjmV691ihHt44fpvFML13Vi8ytuFmjrNw6fsjmWaN03Dp+yHBfozzcOn7IcF+jBNw6fshwX6fM21qOuEY0vYKtU7xtLUdcg5pexNYpybaWI65xTa9j6xRaW2tm5BrZ9FK2Tvm0tRxxjWx6NUNRtFdRFA1mmGGGGWaYYYYZZphhhhlmmGGGGeb/JfO8Hd7JKPJc+dFRH1TZ7Q6K4j+7EhTFf9pQFN9oQ1F8FMU32FAU/88biuL/eUNRfMMNRfFRFP/FDUXxgQMc4AAHOMABDnCAAxzgAAc4r6GkJGhAAxrQgAY0oAENaEADGtC8Hpr/b0pZAgc4wAEOcIADHOAABzjAAU51vf9CUfz33q0MYi8MfBnHKIn/v1USP4y+ipPRyBt6MhjOnwrh11sCPz/6T5bn/1/+vvj3yXv+y9M/16E7V/9Oklv/7//n/wGPdm7b"
               },
               {
                  "name" : "annual_peak_electric_demand",
                  "units" : "kW",
                  "value" : 621.90029000000004
               },
               {
                  "name" : "first_year_capital_cost",
                  "units" : "$",
                  "value" : 0
               },
               {
                  "name" : "annual_utility_cost",
                  "units" : "$",
                  "value" : 0
               },
               {
                  "name" : "total_lifecycle_cost",
                  "units" : "$",
                  "value" : 0
               }
            ],
            "step_warnings" : []
         }
      }
   ],
   "updated_at" : "20170710T194857Z",
   "weather_file" : "USA_CO_Denver.Intl.AP.725650_TMY3.epw"
}
