{
   "completed_at" : "20170710T193623Z",
   "completed_status" : "Success",
   "created_at" : "2017-07-10 19:34:21 +0000",
   "current_step" : 5,
   "description" : "",
   "eplusout_err" : "Program Version,EnergyPlus, Version 8.7.0-78a111df4a, YMD=2017.07.10 19:35,IDD_Version 8.7.0\n   ************* IDF Context for following error/warning message:\n   ************* Note -- lines truncated at 300 characters, if necessary...\n   *************      5 Building,\n   ************* indicated Name=NECB 2011-Warehouse-NECB HDD Method-CAN_NF_Stephenville.718150_CWEC.epw created: 2017-07-10 19:34:27 +0000\n   ************* Only last 1 lines before error line shown.....\n   *************      6   NECB 2011-Warehouse-NECB HDD Method-CAN_NF_Stephenville.718150_CWEC.epw created: 2017-07-10 19:34:27 +0000, !- Name\n   ** Warning ** IP: IDF line~6 Alpha Argument length exceeds maximum, will be truncated=  NECB 2011-Warehouse-NECB HDD Method-CAN_NF_Stephenville.718150_CWEC.epw created: 2017-07-10 19:34:27 +000\n   **   ~~~   ** Will be processed as Alpha=NECB 2011-WAREHOUSE-NECB HDD METHOD-CAN_NF_STEPHENVILLE.718150_CWEC.EPW CREATED: 2017-07-10 19:34:27 +0000\n   ************* Beginning Zone Sizing Calculations\n   ** Warning ** ProcessScheduleInput: Schedule:Day:Interval=\"ECONOMIZER MAX OA FRACTION 100 PCT DEFAULT\", Blank Schedule Type Limits Name input -- will not be validated.\n   ** Warning ** ProcessScheduleInput: Schedule:Day:Interval=\"SCHEDULE DAY 1\", Blank Schedule Type Limits Name input -- will not be validated.\n   ** Warning ** ProcessScheduleInput: Schedule:Day:Interval=\"SCHEDULE DAY 10\", Blank Schedule Type Limits Name input -- will not be validated.\n   ** Warning ** ProcessScheduleInput: Schedule:Day:Interval=\"SCHEDULE DAY 11\", Blank Schedule Type Limits Name input -- will not be validated.\n   ** Warning ** ProcessScheduleInput: Schedule:Day:Interval=\"SCHEDULE DAY 12\", Blank Schedule Type Limits Name input -- will not be validated.\n   ** Warning ** ProcessScheduleInput: Schedule:Day:Interval=\"SCHEDULE DAY 13\", Blank Schedule Type Limits Name input -- will not be validated.\n   ** Warning ** ProcessScheduleInput: Schedule:Day:Interval=\"SCHEDULE DAY 14\", Blank Schedule Type Limits Name input -- will not be validated.\n   ** Warning ** ProcessScheduleInput: Schedule:Day:Interval=\"SCHEDULE DAY 15\", Blank Schedule Type Limits Name input -- will not be validated.\n   ** Warning ** ProcessScheduleInput: Schedule:Day:Interval=\"SCHEDULE DAY 16\", Blank Schedule Type Limits Name input -- will not be validated.\n   ** Warning ** ProcessScheduleInput: Schedule:Day:Interval=\"SCHEDULE DAY 17\", Blank Schedule Type Limits Name input -- will not be validated.\n   ** Warning ** ProcessScheduleInput: Schedule:Day:Interval=\"SCHEDULE DAY 18\", Blank Schedule Type Limits Name input -- will not be validated.\n   ** Warning ** ProcessScheduleInput: Schedule:Day:Interval=\"SCHEDULE DAY 19\", Blank Schedule Type Limits Name input -- will not be validated.\n   ** Warning ** ProcessScheduleInput: Schedule:Day:Interval=\"SCHEDULE DAY 2\", Blank Schedule Type Limits Name input -- will not be validated.\n   ** Warning ** ProcessScheduleInput: Schedule:Day:Interval=\"SCHEDULE DAY 5\", Blank Schedule Type Limits Name input -- will not be validated.\n   ** Warning ** ProcessScheduleInput: Schedule:Day:Interval=\"SCHEDULE DAY 6\", Blank Schedule Type Limits Name input -- will not be validated.\n   ** Warning ** ProcessScheduleInput: Schedule:Day:Interval=\"SCHEDULE DAY 7\", Blank Schedule Type Limits Name input -- will not be validated.\n   ** Warning ** ProcessScheduleInput: Schedule:Day:Interval=\"SCHEDULE DAY 8\", Blank Schedule Type Limits Name input -- will not be validated.\n   ** Warning ** ProcessScheduleInput: Schedule:Day:Interval=\"SCHEDULE DAY 9\", Blank Schedule Type Limits Name input -- will not be validated.\n   ** Warning ** ProcessScheduleInput: Schedule:Year=\"ECONOMIZER MAX OA FRACTION 100 PCT\", Blank Schedule Type Limits Name input -- will not be validated.\n   ** Warning ** ProcessScheduleInput: Schedule:Year=\"SCHEDULE RULESET 10\", Blank Schedule Type Limits Name input -- will not be validated.\n   ** Warning ** ProcessScheduleInput: Schedule:Year=\"SCHEDULE RULESET 11\", Blank Schedule Type Limits Name input -- will not be validated.\n   ** Warning ** ProcessScheduleInput: Schedule:Year=\"SCHEDULE RULESET 3\", Blank Schedule Type Limits Name input -- will not be validated.\n   ** Warning ** ProcessScheduleInput: Schedule:Year=\"SCHEDULE RULESET 4\", Blank Schedule Type Limits Name input -- will not be validated.\n   ** Warning ** ProcessScheduleInput: Schedule:Year=\"SCHEDULE RULESET 5\", Blank Schedule Type Limits Name input -- will not be validated.\n   ** Warning ** ProcessScheduleInput: Schedule:Year=\"SCHEDULE RULESET 6\", Blank Schedule Type Limits Name input -- will not be validated.\n   ** Warning ** ProcessScheduleInput: Schedule:Year=\"SCHEDULE RULESET 7\", Blank Schedule Type Limits Name input -- will not be validated.\n   ** Warning ** ProcessScheduleInput: Schedule:Year=\"SCHEDULE RULESET 8\", Blank Schedule Type Limits Name input -- will not be validated.\n   ** Warning ** ProcessScheduleInput: Schedule:Year=\"SCHEDULE RULESET 9\", Blank Schedule Type Limits Name input -- will not be validated.\n   ** Warning ** ProcessScheduleInput: Schedule:Constant=\"ALWAYS OFF DISCRETE\", Blank Schedule Type Limits Name input -- will not be validated.\n   ** Warning ** ProcessScheduleInput: Schedule:Constant=\"ALWAYS ON CONTINUOUS\", Blank Schedule Type Limits Name input -- will not be validated.\n   ** Warning ** CheckUsedConstructions: There are 22 nominally unused constructions in input.\n   **   ~~~   ** For explicit details on each unused construction, use Output:Diagnostics,DisplayExtraWarnings;\n   ************* Beginning System Sizing Calculations\n   ************* Beginning Plant Sizing Calculations\n   ** Warning ** GetDXCoils: Coil:Cooling:DX:SingleSpeed=\"COIL COOLING DX SINGLE SPEED 1 28KBTU/HR 14.0SEER\", invalid\n   **   ~~~   ** ...Part Load Fraction Correlation Curve Name = DXCOOL-NECB2011-REF-COOLPLFFPLR has out of range value.\n   **   ~~~   ** ...Curve maximum must be <= 1.0, curve max at PLR = 0.99 is 1.015\n   **   ~~~   ** ...Setting curve maximum to 1.0 and simulation continues.\n   ** Warning ** GetDXCoils: Coil:Cooling:DX:SingleSpeed=\"COIL COOLING DX SINGLE SPEED 3 144KBTU/HR 9.7EER\", invalid\n   **   ~~~   ** ...Part Load Fraction Correlation Curve Name = DXCOOL-NECB2011-REF-COOLPLFFPLR 2 has out of range value.\n   **   ~~~   ** ...Curve maximum must be <= 1.0, curve max at PLR = 0.99 is 1.015\n   **   ~~~   ** ...Setting curve maximum to 1.0 and simulation continues.\n   ** Warning ** GetDXCoils: Coil:Cooling:DX:SingleSpeed=\"COIL COOLING DX SINGLE SPEED 2 370KBTU/HR 8.39EER\", invalid\n   **   ~~~   ** ...Part Load Fraction Correlation Curve Name = DXCOOL-NECB2011-REF-COOLPLFFPLR 1 has out of range value.\n   **   ~~~   ** ...Curve maximum must be <= 1.0, curve max at PLR = 0.99 is 1.015\n   **   ~~~   ** ...Setting curve maximum to 1.0 and simulation continues.\n   ** Warning ** The Standard Ratings is calculated for Coil:Cooling:DX:SingleSpeed = COIL COOLING DX SINGLE SPEED 1 28KBTU/HR 14.0SEER but not at the AHRI test condition due to curve out of bound.\n   **   ~~~   **  Review the Standard Ratings calculations in the Engineering Reference for this coil type. Also, use Output:Diagnostics, DisplayExtraWarnings for further guidance.\n   ** Warning ** The Standard Ratings is calculated for Coil:Cooling:DX:SingleSpeed = COIL COOLING DX SINGLE SPEED 3 144KBTU/HR 9.7EER but not at the AHRI test condition due to curve out of bound.\n   **   ~~~   **  Review the Standard Ratings calculations in the Engineering Reference for this coil type. Also, use Output:Diagnostics, DisplayExtraWarnings for further guidance.\n   ** Warning ** The Standard Ratings is calculated for Coil:Cooling:DX:SingleSpeed = COIL COOLING DX SINGLE SPEED 2 370KBTU/HR 8.39EER but not at the AHRI test condition due to curve out of bound.\n   **   ~~~   **  Review the Standard Ratings calculations in the Engineering Reference for this coil type. Also, use Output:Diagnostics, DisplayExtraWarnings for further guidance.\n   ** Warning ** Check input. Pump nominal power or motor efficiency is set to 0, for pump=SERVICE WATER LOOP PUMP\n   ** Warning ** Output:Meter: invalid Name=\"GAS:FACILITY\" - not found.\n   ** Warning ** Output:Meter: invalid Name=\"DISTRICTCOOLING:FACILITY\" - not found.\n   ** Warning ** Output:Meter: invalid Name=\"DISTRICTHEATING:FACILITY\" - not found.\n   ** Warning ** Output:Meter:MeterFileOnly: invalid Name=\"GAS:FACILITY\" - not found.\n   ** Warning ** Output:Meter:MeterFileOnly requested for \"Electricity:Facility\" (TimeStep), already on \"Output:Meter\". Will report to both eplusout.eso and eplusout.mtr\n   ************* Testing Individual Branch Integrity\n   ************* All Branches passed integrity testing\n   ************* Testing Individual Supply Air Path Integrity\n   ************* All Supply Air Paths passed integrity testing\n   ************* Testing Individual Return Air Path Integrity\n   ************* All Return Air Paths passed integrity testing\n   ************* No node connection errors were found.\n   ************* Beginning Simulation\n   ** Warning ** CalcDoe2DXCoil: Coil:Cooling:DX:SingleSpeed \"COIL COOLING DX SINGLE SPEED 1 28KBTU/HR 14.0SEER\" - Air-cooled condenser inlet dry-bulb temperature below 0 C. Outdoor dry-bulb temperature = -7.50E-002\n   **   ~~~   **  ... Occurrence info = RUN PERIOD 1, 01/02 06:03 - 06:05\n   **   ~~~   ** ... Operation at low ambient temperatures may require special performance curves.\n   ** Warning ** Plant Loop: MAIN SERVICE WATER LOOP Demand Side is storing excess heat the majority of the time.\n   ** Warning ** Plant Loop: MAIN SERVICE WATER LOOP Supply Side is storing excess heat the majority of the time.\n   ************* Simulation Error Summary *************\n   ************* There are 9 unused schedules in input.\n   ************* There are 9 unused week schedules in input.\n   ************* There are 18 unused day schedules in input.\n   ************* Use Output:Diagnostics,DisplayUnusedSchedules; to see them.\n   *************\n   ************* ===== Recurring Error Summary =====\n   ************* The following recurring error messages occurred.\n   *************\n   *************  ** Warning ** Plant loop exceeding upper temperature limit, PlantLoop=\"MAIN SERVICE WATER LOOP\"\n   *************  **   ~~~   **   This error occurred 22409 total times;\n   *************  **   ~~~   **   during Warmup 1033 times;\n   *************  **   ~~~   **   during Sizing 0 times.\n   *************  **   ~~~   **   Max=82.222222\n   *************\n   *************  ** Warning ** CalcDoe2DXCoil: Coil:Cooling:DX:SingleSpeed=\"COIL COOLING DX SINGLE SPEED 1 28KBTU/HR 14.0SEER\" - Low condenser dry-bulb temperature error continues...\n   *************  **   ~~~   **   This error occurred 196 total times;\n   *************  **   ~~~   **   during Warmup 0 times;\n   *************  **   ~~~   **   during Sizing 0 times.\n   *************  **   ~~~   **   Max=-7.500000E-002 [C]  Min=-17.4 [C]\n   *************\n   *************\n   ************* ===== Final Error Summary =====\n   ************* The following error categories occurred.  Consider correcting or noting.\n   ************* Nominally Unused Constructions\n   ************* ..The nominally unused constructions warning is provided to alert you to potential conditions that can cause\n   ************* ..extra time during simulation. Each construction is calculated by the algorithm indicated in the HeatBalanceAlgorithm\n   ************* ..object. You may remove the constructions indicated (when you use the DisplayExtraWarnings option).\n   *************\n   ************* EnergyPlus Warmup Error Summary. During Warmup: 0 Warning; 0 Severe Errors.\n   ************* EnergyPlus Sizing Error Summary. During Sizing: 31 Warning; 0 Severe Errors.\n   ************* EnergyPlus Completed Successfully-- 22651 Warning; 0 Severe Errors; Elapsed Time=00hr 00min 38.14sec\n",
   "file_format_version" : "0.0.1",
   "file_paths" : [ "../weather", "../seeds", "../seed" ],
   "hash" : "D8050690",
   "measure_paths" : [ "../measures" ],
   "name" : "LHS Autogenerated 1080",
   "osa_id" : "4fef0e0f-5396-4c55-a6e1-2cd6803db3ab",
   "osd_id" : "c25133d3-e3b9-4b1c-928c-33b3e19fa3e4",
   "run_directory" : "./run",
   "seed_file" : "seed.osm",
   "started_at" : "20170710T193424Z",
   "steps" : [
      {
         "arguments" : {
            "__SKIP__" : false,
            "building_type" : "Warehouse",
            "climate_zone" : "NECB HDD Method",
            "epw_file" : "CAN_NF_Stephenville.718150_CWEC.epw",
            "template" : "NECB 2011"
         },
         "measure_dir_name" : "create_prototype_building",
         "name" : "create_prototype_building",
         "result" : {
            "completed_at" : "20170710T193516Z",
            "measure_class_name" : "CreatePrototypeBuilding",
            "measure_display_name" : "Create Prototype Building",
            "measure_name" : "create_prototype_building",
            "measure_taxonomy" : "Whole Building.Space Types",
            "measure_type" : "ModelMeasure",
            "measure_uid" : "ae90fsd7-a651-467a-bc8d-29d310b0f937",
            "measure_version_id" : "c6ec5c18-5595-459f-a082-09a19c8c869c",
            "measure_version_modified" : "20170519T182315Z",
            "measure_xml_checksum" : "057E8D9D",
            "started_at" : "20170710T193427Z",
            "stderr" : "",
            "stdout" : "[OpenStudio.Measure] <0> OSArgumentVector is deprecated, use OpenStudio::Measure::OSArgumentVector instead.\n[openstudio.EpwFile] <0> Successive data points (1988-Jan-31 to 1985-Feb-01, ending on line 753) are greater than 1 day apart in EPW file '/usr/local/bundle/bundler/gems/openstudio-standards-f448df66933d/openstudio-standards/data/weather/CAN_NF_Stephenville.718150_CWEC.epw'. Data will be treated as typical (TMY)\n[openstudio.setFileExtension] <0> Path p, '/usr/local/bundle/bundler/gems/openstudio-standards-f448df66933d/openstudio-standards/data/weather/CAN_NF_Stephenville.718150_CWEC.ddy', has an unexpected file extension. Was expecting 'idf'.\n[openstudio.model.YearDescription] <1> 'UseWeatherFile' is not yet a supported option for YearDescription\n[openstudio.model.YearDescription] <1> 'UseWeatherFile' is not yet a supported option for YearDescription\n[openstudio.setFileExtension] <0> Path p, '/usr/local/bundle/bundler/gems/openstudio-standards-f448df66933d/openstudio-standards/data/weather/CAN_NF_Stephenville.718150_CWEC.ddy', has an unexpected file extension. Was expecting 'idf'.\n[openstudio.model.YearDescription] <1> 'UseWeatherFile' is not yet a supported option for YearDescription\n[openstudio.model.YearDescription] <1> 'UseWeatherFile' is not yet a supported option for YearDescription\n[openstudio.EpwFile] <0> Successive data points (1988-Jan-31 to 1985-Feb-01, ending on line 753) are greater than 1 day apart in EPW file '/usr/local/bundle/bundler/gems/openstudio-standards-f448df66933d/openstudio-standards/data/weather/CAN_NF_Stephenville.718150_CWEC.epw'. Data will be treated as typical (TMY)\n[openstudio.weather.Model] <0> Could not find ground temperatures; will use generic temperatures, which will skew results.\n[openstudio.setFileExtension] <0> Path p, '/usr/local/bundle/bundler/gems/openstudio-standards-f448df66933d/openstudio-standards/data/weather/CAN_NF_Stephenville.718150_CWEC.ddy', has an unexpected file extension. Was expecting 'idf'.\n[openstudio.model.YearDescription] <1> 'UseWeatherFile' is not yet a supported option for YearDescription\n[openstudio.model.YearDescription] <1> 'UseWeatherFile' is not yet a supported option for YearDescription\n[openstudio.EpwFile] <0> Successive data points (1988-Jan-31 to 1985-Feb-01, ending on line 753) are greater than 1 day apart in EPW file '/usr/local/bundle/bundler/gems/openstudio-standards-f448df66933d/openstudio-standards/data/weather/CAN_NF_Stephenville.718150_CWEC.epw'. Data will be treated as typical (TMY)\n[openstudio.setFileExtension] <0> Path p, '/usr/local/bundle/bundler/gems/openstudio-standards-f448df66933d/openstudio-standards/data/weather/CAN_NF_Stephenville.718150_CWEC.ddy', has an unexpected file extension. Was expecting 'idf'.\n[openstudio.model.YearDescription] <1> 'UseWeatherFile' is not yet a supported option for YearDescription\n[openstudio.model.YearDescription] <1> 'UseWeatherFile' is not yet a supported option for YearDescription\n[openstudio.setFileExtension] <0> Path p, '/usr/local/bundle/bundler/gems/openstudio-standards-f448df66933d/openstudio-standards/data/weather/CAN_NF_Stephenville.718150_CWEC.ddy', has an unexpected file extension. Was expecting 'idf'.\n[openstudio.model.YearDescription] <1> 'UseWeatherFile' is not yet a supported option for YearDescription\n[openstudio.model.YearDescription] <1> 'UseWeatherFile' is not yet a supported option for YearDescription\n[openstudio.EpwFile] <0> Successive data points (1988-Jan-31 to 1985-Feb-01, ending on line 753) are greater than 1 day apart in EPW file '/usr/local/bundle/bundler/gems/openstudio-standards-f448df66933d/openstudio-standards/data/weather/CAN_NF_Stephenville.718150_CWEC.epw'. Data will be treated as typical (TMY)\n[openstudio.setFileExtension] <0> Path p, '/usr/local/bundle/bundler/gems/openstudio-standards-f448df66933d/openstudio-standards/data/weather/CAN_NF_Stephenville.718150_CWEC.ddy', has an unexpected file extension. Was expecting 'idf'.\n[openstudio.model.YearDescription] <1> 'UseWeatherFile' is not yet a supported option for YearDescription\n[openstudio.model.YearDescription] <1> 'UseWeatherFile' is not yet a supported option for YearDescription\n[openstudio.setFileExtension] <0> Path p, '/usr/local/bundle/bundler/gems/openstudio-standards-f448df66933d/openstudio-standards/data/weather/CAN_NF_Stephenville.718150_CWEC.ddy', has an unexpected file extension. Was expecting 'idf'.\n[openstudio.model.YearDescription] <1> 'UseWeatherFile' is not yet a supported option for YearDescription\n[openstudio.model.YearDescription] <1> 'UseWeatherFile' is not yet a supported option for YearDescription\n[utilities.idf.WorkspaceObject] <0> Object of type 'Schedule:Constant' and named 'Always Off Discrete', points to an object named OnOff 1 from field 1, but that object cannot be located.\n[utilities.idf.WorkspaceObject] <0> Object of type 'Schedule:Constant' and named 'Always On Continuous', points to an object named Fractional 1 from field 1, but that object cannot be located.\n[utilities.idf.WorkspaceObject] <0> Object of type 'Schedule:Constant' and named 'Always Off Discrete', points to an object named OnOff 1 from field 1, but that object cannot be located.\n[utilities.idf.WorkspaceObject] <0> Object of type 'Schedule:Constant' and named 'Always On Continuous', points to an object named Fractional 1 from field 1, but that object cannot be located.\n[openstudio.standards.Fan] <0> For Fan Constant Volume 1, there is no greater nominal HP.  Use the efficiency of the largest motor category.\n[openstudio.standards.Fan] <0> For Fan Constant Volume 2, there is no greater nominal HP.  Use the efficiency of the largest motor category.\n[openstudio.standards.Fan] <0> For Fan Constant Volume 3, there is no greater nominal HP.  Use the efficiency of the largest motor category.\n[openstudio.EpwFile] <0> Successive data points (1988-Jan-31 to 1985-Feb-01, ending on line 753) are greater than 1 day apart in EPW file '/usr/local/bundle/bundler/gems/openstudio-standards-f448df66933d/openstudio-standards/data/weather/CAN_NF_Stephenville.718150_CWEC.epw'. Data will be treated as typical (TMY)\n[openstudio.setFileExtension] <0> Path p, '/usr/local/bundle/bundler/gems/openstudio-standards-f448df66933d/openstudio-standards/data/weather/CAN_NF_Stephenville.718150_CWEC.ddy', has an unexpected file extension. Was expecting 'idf'.\n[openstudio.model.YearDescription] <1> 'UseWeatherFile' is not yet a supported option for YearDescription\n[openstudio.model.YearDescription] <1> 'UseWeatherFile' is not yet a supported option for YearDescription\n[openstudio.setFileExtension] <0> Path p, '/usr/local/bundle/bundler/gems/openstudio-standards-f448df66933d/openstudio-standards/data/weather/CAN_NF_Stephenville.718150_CWEC.ddy', has an unexpected file extension. Was expecting 'idf'.\n[openstudio.model.YearDescription] <1> 'UseWeatherFile' is not yet a supported option for YearDescription\n[openstudio.model.YearDescription] <1> 'UseWeatherFile' is not yet a supported option for YearDescription\n[openstudio.EpwFile] <0> Successive data points (1988-Jan-31 to 1985-Feb-01, ending on line 753) are greater than 1 day apart in EPW file '/usr/local/bundle/bundler/gems/openstudio-standards-f448df66933d/openstudio-standards/data/weather/CAN_NF_Stephenville.718150_CWEC.epw'. Data will be treated as typical (TMY)\n[openstudio.setFileExtension] <0> Path p, '/usr/local/bundle/bundler/gems/openstudio-standards-f448df66933d/openstudio-standards/data/weather/CAN_NF_Stephenville.718150_CWEC.ddy', has an unexpected file extension. Was expecting 'idf'.\n[openstudio.model.YearDescription] <1> 'UseWeatherFile' is not yet a supported option for YearDescription\n[openstudio.model.YearDescription] <1> 'UseWeatherFile' is not yet a supported option for YearDescription\n[openstudio.setFileExtension] <0> Path p, '/usr/local/bundle/bundler/gems/openstudio-standards-f448df66933d/openstudio-standards/data/weather/CAN_NF_Stephenville.718150_CWEC.ddy', has an unexpected file extension. Was expecting 'idf'.\n[openstudio.model.YearDescription] <1> 'UseWeatherFile' is not yet a supported option for YearDescription\n[openstudio.model.YearDescription] <1> 'UseWeatherFile' is not yet a supported option for YearDescription\n[openstudio.EpwFile] <0> Successive data points (1988-Jan-31 to 1985-Feb-01, ending on line 753) are greater than 1 day apart in EPW file '/usr/local/bundle/bundler/gems/openstudio-standards-f448df66933d/openstudio-standards/data/weather/CAN_NF_Stephenville.718150_CWEC.epw'. Data will be treated as typical (TMY)\n[openstudio.setFileExtension] <0> Path p, '/usr/local/bundle/bundler/gems/openstudio-standards-f448df66933d/openstudio-standards/data/weather/CAN_NF_Stephenville.718150_CWEC.ddy', has an unexpected file extension. Was expecting 'idf'.\n[openstudio.model.YearDescription] <1> 'UseWeatherFile' is not yet a supported option for YearDescription\n[openstudio.model.YearDescription] <1> 'UseWeatherFile' is not yet a supported option for YearDescription\n[openstudio.setFileExtension] <0> Path p, '/usr/local/bundle/bundler/gems/openstudio-standards-f448df66933d/openstudio-standards/data/weather/CAN_NF_Stephenville.718150_CWEC.ddy', has an unexpected file extension. Was expecting 'idf'.\n[openstudio.model.YearDescription] <1> 'UseWeatherFile' is not yet a supported option for YearDescription\n[openstudio.model.YearDescription] <1> 'UseWeatherFile' is not yet a supported option for YearDescription\n[openstudio.standards.Fan] <0> For Fan Constant Volume 1, there is no greater nominal HP.  Use the efficiency of the largest motor category.\n[openstudio.standards.Fan] <0> For Fan Constant Volume 2, there is no greater nominal HP.  Use the efficiency of the largest motor category.\n[openstudio.standards.Fan] <0> For Fan Constant Volume 3, there is no greater nominal HP.  Use the efficiency of the largest motor category.\n",
            "step_errors" : [],
            "step_files" : [],
            "step_info" : [
               "Started adding geometry",
               "Finished adding geometry",
               "Started adding weather file for climate zone: NECB HDD Method.",
               "Template =",
               "Setting Zone3 Bulk Storage to Space Function.Warehouse - med/blk",
               "Setting Zone2 Fine Storage to Space Function.Warehouse - fine",
               "Setting Zone1 Office to Space Function.Office - enclosed",
               "Started applying space types (loads)",
               "Space Function Office - enclosed had no people, one has been created.",
               "Space Function Office - enclosed set occupancy to 4.65 people/1000 ft^2.",
               "Space Function Office - enclosed had no lights, one has been created.",
               "Space Function Office - enclosed set LPD to 1.105536975 W/ft^2.",
               "Space Function Office - enclosed had no electric equipment, one has been created.",
               "Space Function Office - enclosed set electric EPD to 0.696767001 W/ft^2.",
               "Space Function Office - enclosed had no ventilation specification, one has been created.",
               "Space Function Office - enclosed set ventilation per area to 0.085 cfm/ft^2.",
               "Space Function Office - enclosed had no infiltration objects, one has been created.",
               "Space Function Office - enclosed set infiltration to 0.0 per ft^2 exterior surface area.",
               "Space Function Office - enclosed set occupancy schedule to NECB-A-Occupancy.",
               "Space Function Office - enclosed set occupant activity schedule to NECB-Activity.",
               "Space Function Office - enclosed set lighting schedule to NECB-A-Lighting.",
               "Space Function Office - enclosed set electric equipment schedule to NECB-A-Electric-Equipment.",
               "Space Function Office - enclosed set infiltration schedule to Always On.",
               "Space Function Office - enclosed set heating setpoint schedule to NECB-A-Thermostat Setpoint-Heating.",
               "Space Function Office - enclosed set cooling setpoint schedule to NECB-A-Thermostat Setpoint-Cooling.",
               "Space Function Warehouse - fine had no people, one has been created.",
               "Space Function Warehouse - fine set occupancy to 1.86 people/1000 ft^2.",
               "Space Function Warehouse - fine had no lights, one has been created.",
               "Space Function Warehouse - fine set LPD to 0.947603122 W/ft^2.",
               "Space Function Warehouse - fine had no electric equipment, one has been created.",
               "Space Function Warehouse - fine set electric EPD to 0.092902267 W/ft^2.",
               "Space Function Warehouse - fine had no ventilation specification, one has been created.",
               "Space Function Warehouse - fine set ventilation per area to 0.06 cfm/ft^2.",
               "Space Function Warehouse - fine had no infiltration objects, one has been created.",
               "Space Function Warehouse - fine set infiltration to 0.0 per ft^2 exterior surface area.",
               "Space Function Warehouse - fine set occupancy schedule to NECB-A-Occupancy.",
               "Space Function Warehouse - fine set occupant activity schedule to NECB-Activity.",
               "Space Function Warehouse - fine set lighting schedule to NECB-A-Lighting.",
               "Space Function Warehouse - fine set electric equipment schedule to NECB-A-Electric-Equipment.",
               "Space Function Warehouse - fine set infiltration schedule to Always On.",
               "Space Function Warehouse - fine set heating setpoint schedule to NECB-A-Thermostat Setpoint-Heating.",
               "Space Function Warehouse - fine set cooling setpoint schedule to NECB-A-Thermostat Setpoint-Cooling.",
               "Space Function Warehouse - med/blk had no people, one has been created.",
               "Space Function Warehouse - med/blk set occupancy to 0.93 people/1000 ft^2.",
               "Space Function Warehouse - med/blk had no lights, one has been created.",
               "Space Function Warehouse - med/blk set LPD to 0.594574508 W/ft^2.",
               "Space Function Warehouse - med/blk had no electric equipment, one has been created.",
               "Space Function Warehouse - med/blk set electric EPD to 0.092902267 W/ft^2.",
               "Space Function Warehouse - med/blk had no ventilation specification, one has been created.",
               "Space Function Warehouse - med/blk set ventilation per area to 0.06 cfm/ft^2.",
               "Space Function Warehouse - med/blk had no infiltration objects, one has been created.",
               "Space Function Warehouse - med/blk set infiltration to 0.0 per ft^2 exterior surface area.",
               "Space Function Warehouse - med/blk set occupancy schedule to NECB-A-Occupancy.",
               "Space Function Warehouse - med/blk set occupant activity schedule to NECB-Activity.",
               "Space Function Warehouse - med/blk set lighting schedule to NECB-A-Lighting.",
               "Space Function Warehouse - med/blk set electric equipment schedule to NECB-A-Electric-Equipment.",
               "Space Function Warehouse - med/blk set infiltration schedule to Always On.",
               "Space Function Warehouse - med/blk set heating setpoint schedule to NECB-A-Thermostat Setpoint-Heating.",
               "Space Function Warehouse - med/blk set cooling setpoint schedule to NECB-A-Thermostat Setpoint-Cooling.",
               "Finished applying space types (loads)",
               "Started applying constructions",
               "Adding construction set: NECB 2011-NECB HDD Method-Warehouse--is_residentialNo",
               "Adding construction Typical Insulated Exterior Mass Floor R-15.63.",
               "Adding construction Typical Insulated Exterior Mass Wall R-12.5.",
               "Adding construction Typical Insulated Metal Building Roof R-20.41.",
               "Adding construction Typical Interior Floor.",
               "Adding construction Typical Interior Wall.",
               "Adding construction Typical Interior Ceiling.",
               "Adding construction Typical Insulated Carpeted 6in Slab Floor.",
               "Adding construction U 0.55 SHGC 0.31 Dbl Ref-D Tint 6mm/6mm Air.",
               "Adding construction Typical Insulated Metal Door R-1.43.",
               "Adding construction U 0.35 SHGC 0.35 Dbl LoE (e2-.1) Tint 6mm/13mm Air.",
               "Adding construction Typical Overhead Door R-2.0.",
               "Adding construction U 0.48 SHGC 0.40 Dbl Ref-D Clr 6mm/13mm.",
               "Adding construction Typical Interior Window.",
               "Adding construction Typical Interior Door.",
               "Adding construction Typical Interior Partition.",
               "Finished applying constructions",
               "WWR NonRes = 0%; window = 0 ft2, wall = 0 ft2.",
               "WWR Res = 0%; window = 0 ft2, wall = 0 ft2.",
               "WWR Semiheated = 0%; window = 0 ft2, wall = 0 ft2.",
               "The skylight to roof ratios (SRRs) are: NonRes: 2%, Res: 0%.",
               "Started creating thermal zones",
               "Finished creating thermal zones",
               "Running simulation /mnt/openstudio/analysis_4fef0e0f-5396-4c55-a6e1-2cd6803db3ab/data_point_c25133d3-e3b9-4b1c-928c-33b3e19fa3e4/run/000_create_prototype_building/output/Warehouse-NECB 2011-NECB HDD Method-CAN_NF_Stephenville.718150_CWEC.epw/SR0.",
               "Finished run.",
               "Started Adding HVAC",
               "Finished adding HVAC",
               "Started Adding Service Water Heating",
               "Adding service water loop.",
               "Adding water heater.",
               "Template =",
               "Finished adding Service Water Heating",
               "Set sizing factors to 1.3 for heating and 1.3 for cooling.",
               "Running simulation /mnt/openstudio/analysis_4fef0e0f-5396-4c55-a6e1-2cd6803db3ab/data_point_c25133d3-e3b9-4b1c-928c-33b3e19fa3e4/run/000_create_prototype_building/output/Warehouse-NECB 2011-NECB HDD Method-CAN_NF_Stephenville.718150_CWEC.epw/SR1.",
               "Finished run.",
               "Started applying multizone vav OA sizing.",
               "Finished applying multizone vav OA sizing.",
               "Started applying prototype HVAC assumptions.",
               "For Fan Constant Volume 1: allowed_hp = 1.01HP; motor eff = 61.5%; total fan eff = 40% based on 1050 cfm.",
               "For Fan Constant Volume 2: allowed_hp = 9.48HP; motor eff = 61.5%; total fan eff = 40% based on 13864 cfm.",
               "For Fan Constant Volume 3: allowed_hp = 3.69HP; motor eff = 61.5%; total fan eff = 40% based on 5394 cfm.",
               "Sp-Zone1 Office Sys-3 Flr-1 Sch-A HPlcmt-south ZN NECB System 3 PSZ does not require an economizer because the total cooling capacity of 27987 Btu/hr is less than the minimum capacity of 68243 Btu/hr.",
               "Sp-Zone2 Fine Storage Sys-4 Flr-1 Sch-A HPlcmt-south ZN NECB System 4 PSZ requires an economizer because the total cooling capacity of 143778 Btu/hr exceeds the minimum capacity of 68243 Btu/hr.",
               "Sp-Zone3 Bulk Storage Sys-4 Flr-1 Sch-A HPlcmt-east ZN NECB System 4 PSZ requires an economizer because the total cooling capacity of 369560 Btu/hr exceeds the minimum capacity of 68243 Btu/hr.",
               "Finished applying prototype HVAC assumptions.",
               "Started applying HVAC efficiency standards.",
               "For Sp-Zone1 Office Sys-3 Flr-1 Sch-A HPlcmt-south ZN NECB System 3 PSZ, ERV not required based on 0% OA flow, design supply air flow of 1050cfm, and climate zone NECB HDD Method.",
               "For Sp-Zone1 Office Sys-3 Flr-1 Sch-A HPlcmt-south ZN NECB System 3 PSZ, ERV not required based on exhaust heat content.",
               "For NECB 2011 NECB HDD Method:  Sp-Zone1 Office Sys-3 Flr-1 Sch-A HPlcmt-south ZN NECB System 3 PSZ: DCV is not required for any system.",
               "For Sp-Zone1 Office Sys-3 Flr-1 Sch-A HPlcmt-south ZN NECB System 3 PSZ: Annual occupied hours = 2860 hr/yr, assuming a 0.15 occupancy threshold.  This schedule will be used as the HVAC operation schedule.",
               "For Sp-Zone1 Office Sys-3 Flr-1 Sch-A HPlcmt-south ZN NECB System 3 PSZ: Setting motorized OA damper schedule to Sp-Zone1 Office Sys-3 Flr-1 Sch-A HPlcmt-south ZN NECB System 3 PSZ Occ Sch.",
               "For Sp-Zone2 Fine Storage Sys-4 Flr-1 Sch-A HPlcmt-south ZN NECB System 4 PSZ, ERV not required based on 0% OA flow, design supply air flow of 5394cfm, and climate zone NECB HDD Method.",
               "For Sp-Zone2 Fine Storage Sys-4 Flr-1 Sch-A HPlcmt-south ZN NECB System 4 PSZ, ERV not required based on exhaust heat content.",
               "For NECB 2011 NECB HDD Method:  Sp-Zone2 Fine Storage Sys-4 Flr-1 Sch-A HPlcmt-south ZN NECB System 4 PSZ: DCV is not required for any system.",
               "For Sp-Zone2 Fine Storage Sys-4 Flr-1 Sch-A HPlcmt-south ZN NECB System 4 PSZ: Annual occupied hours = 2860 hr/yr, assuming a 0.15 occupancy threshold.  This schedule will be used as the HVAC operation schedule.",
               "For Sp-Zone2 Fine Storage Sys-4 Flr-1 Sch-A HPlcmt-south ZN NECB System 4 PSZ: Because the system has an economizer, it requires a motorized OA damper.",
               "For Sp-Zone2 Fine Storage Sys-4 Flr-1 Sch-A HPlcmt-south ZN NECB System 4 PSZ: Setting motorized OA damper schedule to Sp-Zone2 Fine Storage Sys-4 Flr-1 Sch-A HPlcmt-south ZN NECB System 4 PSZ Occ Sch.",
               "For Sp-Zone3 Bulk Storage Sys-4 Flr-1 Sch-A HPlcmt-east ZN NECB System 4 PSZ, ERV not required based on 0% OA flow, design supply air flow of 13864cfm, and climate zone NECB HDD Method.",
               "For Sp-Zone3 Bulk Storage Sys-4 Flr-1 Sch-A HPlcmt-east ZN NECB System 4 PSZ, ERV not required based on exhaust heat content.",
               "For NECB 2011 NECB HDD Method:  Sp-Zone3 Bulk Storage Sys-4 Flr-1 Sch-A HPlcmt-east ZN NECB System 4 PSZ: DCV is not required for any system.",
               "For Sp-Zone3 Bulk Storage Sys-4 Flr-1 Sch-A HPlcmt-east ZN NECB System 4 PSZ: Annual occupied hours = 2860 hr/yr, assuming a 0.15 occupancy threshold.  This schedule will be used as the HVAC operation schedule.",
               "For Sp-Zone3 Bulk Storage Sys-4 Flr-1 Sch-A HPlcmt-east ZN NECB System 4 PSZ: Because the system has an economizer, it requires a motorized OA damper.",
               "For Sp-Zone3 Bulk Storage Sys-4 Flr-1 Sch-A HPlcmt-east ZN NECB System 4 PSZ: Setting motorized OA damper schedule to Sp-Zone3 Bulk Storage Sys-4 Flr-1 Sch-A HPlcmt-east ZN NECB System 4 PSZ Occ Sch.",
               "For Fan Constant Volume 1: motor nameplate = 0.6539778167560831HP, motor eff = 61.5%.",
               "For Fan Constant Volume 2: motor nameplate = 9HP, motor eff = 61.5%.",
               "For Fan Constant Volume 3: motor nameplate = 3HP, motor eff = 61.5%.",
               "For Service Water Loop Pump: brake hp = 0.0HP, motor nameplate = 0.1HP, motor eff = 70.0%.",
               "For NECB 2011: Coil Cooling DX Single Speed 1: AirCooled Electric Resistance or None Single Package Capacity = 28kBtu/hr; SEER = 14.0",
               "For NECB 2011: Coil Cooling DX Single Speed 2: AirCooled Electric Resistance or None Single Package Capacity = 370kBtu/hr; EER = 8.39",
               "For NECB 2011: Coil Cooling DX Single Speed 3: AirCooled Electric Resistance or None Single Package Capacity = 144kBtu/hr; EER = 9.7",
               "For NECB 2011: 40.0gal Electricity Water Heater - 40kBtu/hr 1.0 Therm Eff; thermal efficiency = 1.0, skin-loss UA = 3Btu/hr",
               "Finished applying HVAC efficiency standards.",
               "Started adding daylighting controls.",
               "Finished adding daylighting controls.",
               "Total Time = 49sec."
            ],
            "step_result" : "Success",
            "step_values" : [
               {
                  "name" : "building_type",
                  "value" : "Warehouse"
               },
               {
                  "name" : "template",
                  "value" : "NECB 2011"
               },
               {
                  "name" : "climate_zone",
                  "value" : "NECB HDD Method"
               },
               {
                  "name" : "epw_file",
                  "value" : "CAN_NF_Stephenville.718150_CWEC.epw"
               }
            ],
            "step_warnings" : [
               "[openstudio.EpwFile] Successive data points (1988-Jan-31 to 1985-Feb-01, ending on line 753) are greater than 1 day apart in EPW file '/usr/local/bundle/bundler/gems/openstudio-standards-f448df66933d/openstudio-standards/data/weather/CAN_NF_Stephenville.718150_CWEC.epw'. Data will be treated as typical (TMY)",
               "[openstudio.EpwFile] Successive data points (1988-Jan-31 to 1985-Feb-01, ending on line 753) are greater than 1 day apart in EPW file '/usr/local/bundle/bundler/gems/openstudio-standards-f448df66933d/openstudio-standards/data/weather/CAN_NF_Stephenville.718150_CWEC.epw'. Data will be treated as typical (TMY)",
               "[openstudio.weather.Model] Could not find ground temperatures; will use generic temperatures, which will skew results.",
               "[openstudio.EpwFile] Successive data points (1988-Jan-31 to 1985-Feb-01, ending on line 753) are greater than 1 day apart in EPW file '/usr/local/bundle/bundler/gems/openstudio-standards-f448df66933d/openstudio-standards/data/weather/CAN_NF_Stephenville.718150_CWEC.epw'. Data will be treated as typical (TMY)",
               "[openstudio.EpwFile] Successive data points (1988-Jan-31 to 1985-Feb-01, ending on line 753) are greater than 1 day apart in EPW file '/usr/local/bundle/bundler/gems/openstudio-standards-f448df66933d/openstudio-standards/data/weather/CAN_NF_Stephenville.718150_CWEC.epw'. Data will be treated as typical (TMY)",
               "[openstudio.standards.Fan] For Fan Constant Volume 1, there is no greater nominal HP.  Use the efficiency of the largest motor category.",
               "[openstudio.standards.Fan] For Fan Constant Volume 2, there is no greater nominal HP.  Use the efficiency of the largest motor category.",
               "[openstudio.standards.Fan] For Fan Constant Volume 3, there is no greater nominal HP.  Use the efficiency of the largest motor category.",
               "[openstudio.EpwFile] Successive data points (1988-Jan-31 to 1985-Feb-01, ending on line 753) are greater than 1 day apart in EPW file '/usr/local/bundle/bundler/gems/openstudio-standards-f448df66933d/openstudio-standards/data/weather/CAN_NF_Stephenville.718150_CWEC.epw'. Data will be treated as typical (TMY)",
               "[openstudio.EpwFile] Successive data points (1988-Jan-31 to 1985-Feb-01, ending on line 753) are greater than 1 day apart in EPW file '/usr/local/bundle/bundler/gems/openstudio-standards-f448df66933d/openstudio-standards/data/weather/CAN_NF_Stephenville.718150_CWEC.epw'. Data will be treated as typical (TMY)",
               "[openstudio.EpwFile] Successive data points (1988-Jan-31 to 1985-Feb-01, ending on line 753) are greater than 1 day apart in EPW file '/usr/local/bundle/bundler/gems/openstudio-standards-f448df66933d/openstudio-standards/data/weather/CAN_NF_Stephenville.718150_CWEC.epw'. Data will be treated as typical (TMY)",
               "[openstudio.standards.Fan] For Fan Constant Volume 1, there is no greater nominal HP.  Use the efficiency of the largest motor category.",
               "[openstudio.standards.Fan] For Fan Constant Volume 2, there is no greater nominal HP.  Use the efficiency of the largest motor category.",
               "[openstudio.standards.Fan] For Fan Constant Volume 3, there is no greater nominal HP.  Use the efficiency of the largest motor category."
            ]
         }
      },
      {
         "arguments" : {
            "__SKIP__" : false
         },
         "measure_dir_name" : "view_model",
         "name" : "view_model",
         "result" : {
            "completed_at" : "20170710T193517Z",
            "measure_class_name" : "ViewModel",
            "measure_display_name" : "ViewModel",
            "measure_name" : "view_model",
            "measure_taxonomy" : "Reporting.QAQC",
            "measure_type" : "ModelMeasure",
            "measure_uid" : "f4669f10-fda5-489d-8e1c-7ca3c2d40378",
            "measure_version_id" : "f4975c5f-7c25-42a2-927b-02d99b4427ef",
            "measure_version_modified" : "20170526T150340Z",
            "measure_xml_checksum" : "1E1F8B97",
            "started_at" : "20170710T193516Z",
            "stderr" : "",
            "stdout" : "[OpenStudio.Measure] <0> OSArgumentVector is deprecated, use OpenStudio::Measure::OSArgumentVector instead.\n",
            "step_errors" : [],
            "step_files" : [
               "/mnt/openstudio/analysis_4fef0e0f-5396-4c55-a6e1-2cd6803db3ab/data_point_c25133d3-e3b9-4b1c-928c-33b3e19fa3e4/run/001_view_model/report.html",
               "/mnt/openstudio/analysis_4fef0e0f-5396-4c55-a6e1-2cd6803db3ab/data_point_c25133d3-e3b9-4b1c-928c-33b3e19fa3e4/run/001_view_model/report.json"
            ],
            "step_final_condition" : "Report written to <a href='file:////mnt/openstudio/analysis_4fef0e0f-5396-4c55-a6e1-2cd6803db3ab/data_point_c25133d3-e3b9-4b1c-928c-33b3e19fa3e4/run/001_view_model/report.html'>report.html</a>.",
            "step_info" : [ "No changes made to the model." ],
            "step_result" : "NA",
            "step_values" : [
               {
                  "name" : "view_model_html_zip",
[...]
IluOPOGFXsmt5O+O5uJF4pYwt3aqthhtfXdNI2Xr5DZHWjuJF744qjvlKQL8d4Vgddzw/E0iq3Hl51oalxFYdq74/5kmgqNyyjw1DWWV+e305NXvePexymPb6IkdVN2xtNZ5GfCb7mb+uHkxVbZ9Xq5nYxjf5b+S/qdl9uef/v1Yek+crFMi/nekTUW4XySHb/rhzy+sPcslp+UI8vzk1ngLg79ULwPp3cZROPPP1lyvkx0eQgsXcyy/cV52b52b93lp6V7ii1/Sc/thB2t3sUT8ruz20nH+uE5Y5ftiFfbZH9UzqQnL3Q5/+stUV+08pO9R9Ue5u8AG4vlR7zxadntb+19UyVKDpnSkExph0xpRKa0S6a0R6a0T6Z0QKa09vJNQym6KLfpwtymi3ObLtBtuki36ULdpot1my7Ybbpod+ii3SFc0+mi3aGLdkcz2p83XlLMgDH3NIRKzpWeUMmZ0hMqOU96QiVrgp5QyYqgJ1SyHugJlawGekIla4GeUFni01Qii+2ytKepRBbdZUlPU4ksvstSnqYSWYSXJTxNJbIYL0t3mkp06zdZjJflOk0lnRh/1vhCMc2J3hgaSiWnSVOp5DRpKpWcJk2lkqVAU6lkKdBUKlkKNJVKlgJNpZKlQFOpLN/pStFFeVnG05Wii/OynKcrRRfpZVlPV4ou1svynq4UXbSXZT5dKcI1nS7ay5KfrlRltONl9HgZfSGksBteRv9sw8voVbDwMnq8jL7OhpfRiw0vo8fL6PMNL6Mv/yZeRl8tIDa8jH4z3tkIHOAABzjAAQ5wgAMc4AAHOBuP8529yhE0oAENaEADGtCABjSgAQ1oNofm+3pnI3CAAxzgAAc4wAEOcIADHOB8VzjfsDnb8Tj1b/108Y7f8oB1/oP2bN9je7biIm1GJ7b9DejEtt9aJ7ZBfzAiacRmJDSkEtqhEhpRCe1SCe1RCe1TCR1QCa09l2+mRBbbNllw22TRbZOFt00W3zZZgNtkEW6ThbhNFuMOWYw7dOs3WYw7ZDHu6MW4ese1da36DddMdORnqX67NRMd+SpQv9maiY58Bajfas1ERz77DRqtGQlRRXRJejPosmYkRBXUJbnNoMWakRBVXJckNoP+akYrI1Vkl2Q1g+ZqRkJUkV2S0up3VlvXMWisZiQkP0UGbdWMhOST36CpmpGQfPIbtFQzEpJPfpOGamZKZLFdktlMuqmZKZGFd0lyM2mlZqZEFuEl+c2kj5rZWkkW4yUpzqSJmpkSWYyXZDl0UEMHNXRQe0aIDmpiQwc1dFBDB7WSDR3U0EFN66jQQW3NX+P76KD2dEMHtcetgRu2vrNGA8ABDnCAAxzgAAc4wAEOcICz8TjfWf8B0IAGNKABDWhAAxrQgAY0oNkcmr9N3wPgAAc4wAEOcIADHOAABzjAqe/3DTqooWHad9Uw7Ww85d48O8vicaiEp8webEbbtIMNaJt20FrbtN38odC6LW6ohIZUQjtUQiMqoV0qoT0qoX0qoQMqobWn782UyGLbJgtumyy6bbLwtsni2yYLcJsswm2yELfJYtwhi3GHbv0mi3GHLMYdvRhXb5u2rlW/bZqJjvws1W+bZqIjXwXqt00z0ZGvAPXbppnoyGe/Qds0IyGqiC5JbwZt04yEqIK6JLcZtE0zEqKK65LEZtA2zWhlpIrskqxm0DbNSIgqsktSWv22aes6Bm3TjITkp8igbZqRkHzyG7RNMxKST36DtmlGQvLJb9I2zUyJLLZLMptJ2zQzJbLwLkluJm3TzJTIIrwkv5m0TTNbK8livCTFmbRNM1Mii/GSLIe2aWibhrZpzwjRNk1saJuGtmlom1ayoW0a2qZpHRXapq35a3wfbdOebmib9rg1cJfWd9ZdADjAAQ5wgAMc4AAHOMABDnA2Huc7azoAGtCABjSgAQ1oQAMa0IAGNJtD87dpdgAc4AAHOMABDnCAAxzgAAc49f3QNq3Y0DbtsW2avRFt05zB9982LWNsq23aoO+QdE0z0RkS6ewQ6YyIdHaJdPaIdPaJdA6IdNYeujcSoopomyqkbaqYtqmC2qaKapsqrG2quLapAtumimyHKrIdsrWaKrIdqsh2tCJbvT3amlT97mgGMtIzVL83moGMdN7X74xmICOd8/X7ohnISOe7QVc0Ex2iOJanMYOWaCY6RKEsz2EG/dBMdIiiWZ7ADJqhmayDRPEsz14GndBMdIjiWZ666rdBW5Mx6IJmoiM9PQY90Ex0pNPdoAOaiY50uhv0PzPRkU53k+5nRkJUES3PYCatz4yEqIJansRM+p4ZCVHFtTyPmTQ9M1oZqSJbnspMOp4ZCVFFtjybod0Z2p2h3dkzQrQ7ExvanaHdGdqdlWxod4Z2Z1pHhXZna/4a30e7s6cb2p09bg3cXfWddQUADnCAAxzgAAc4wAEOcIADnI3H+c6aBYAGNKABDWhAAxrQgAY0oAHN5tD8bZoUAAc4wAEOcIADHOAABzjAAU59P7Q7Kza0O1u1OxtuRrczewO6ndktdjsbjIjanRkIDamEdqiERlRCu1RCe1RC+1RCB1RCXzxtb6JEFts2WXDbZNFtk4W3TRbfNlmA22QRbpOFuE0W4w5ZjDt06zdZjDtkMe7oxbhOF7SnWiZt0OrryM+SSSO0+jryVcCkFVp9HfkKYNIMrb6OfPYbtUMzEKKK6JL0ZtQRzUCIKqhLcptRUzQDIaq4LklsRn3RDFZGqsguyWpGrdEMhKgiuySlmXRHe6pj1B7NQEh+iowapBkIySe/UYs0AyH55DdqkmYgJJ/8Zm3STJTIYrsks5l1SjNRIgvvkuRm1izNRIkswkvym1m/NJO1kizGS1KcWcs0EyWyGC/Jcuiahq5p6Jr2jBBd08SGrmnomoauaSUbuqaha5rWUaFr2pq/xvfRNe3phq5pj1sDN2l9Z80FgAMc4AAHOMABDnCAAxzgAGfjcb6zngOgAQ1oQAMa0IAGNKABDWhAszk0f5teB8ABDnCAAxzgAAc4wAEOcIBT3w9d04oNXdNWXdN2NqNrmrMBXdOc1rqm7ebPhNbtcEMlNKQS2qESGlEJ7VIJ7VEJ7VMJHVAJrT18b6ZEFts2WXDbZNFtk4W3TRbfNlmA22QRbpOFuE0W4w5ZjDt06zdZjDtkMe7oxbh617R1rfpd00x05Gepftc0Ex35KlC/a5qJjnwFqN81zURHPvsNuqYZCVFFdEl6M+iaZiREFdQluc2ga5qREFVclyQ2g65pRisjVWSXZDWDrmlGQlSRXZLS6ndNW9cx6JpmJCQ/RQZd04yE5JPfoGuakZB88ht0TTMSkk9+k65pZkpksV2S2Uy6ppkpkYV3SXIz6ZpmpkQW4SX5zaRrmtlaSRbjJSnOpGuamRJZjJdkOXRNQ9c0dE17RoiuaWJD1zR0TUPXtJINXdPQNU3rqNA1bc1f4/vomvZ0Q9e0x62Bm7S+s+YCwAEOcIADHOAABzjAAQ5wgLPxON9ZzwHQgAY0oAENaEADGtCABjSg2Ryav02vA+AABzjAAQ5wgAMc4AAHOMCp74euacWGrmmrrmmjzeiaNtyArmnD1rqmDfoOSdM0E50hkc4Okc6ISGeXSGePSGefSOeASGftmXsjIaqItqlC2qaKaZsqqG2qqLapwtqmimubKrBtqsh2qCLbIVurqSLboYpsRyuy1bujrUnVb45mICM9Q/VboxnISOd9/cZoBjLSOV+/LZqBjHS+GzRFM9EhimN5GjPoiGaiQxTK8hxm0A7NRIcomuUJzKAXmsk6SBTP8uxl0AjNRIconuWpq34XtDUZgyZoJjrS02PQAs1ERzrdDRqgmehIp7tB+zMTHel0N2l+ZiREFdHyDGbS+cxIiCqo5UnMpO2ZkRBVXMvzmEnPM6OVkSqy5anMpOGZkRBVZMuzGbqdodsZup09I0S3M7Gh2xm6naHbWcmGbmfodqZ1VOh2tuav8X10O3u6odvZ49bAzVXfWVMA4AAHOMABDnCAAxzgAAc4wNl4nO+sVwBoQAMa0IAGNKABDWhAAxrQbA7N36ZHAXCAAxzgAAc4wAEOcIADHODU90O3s2JDt7NVt7Pdzeh2trMB3c52Wux2NhgRtTszEBpSCe1QCY2ohHaphPaohPaphA6ohL542t5EiSy2bbLgtsmi2yYLb5ssvm2yALfJItwmC3GbLMYdshh36NZvshh3yGLc0YtxnS5oT7VM2qDV15GfJZNGaPV15KuASSu0+jryFcCkGVp9HfnsN2qHZiBEFdEl6c2oI5qBEFVQl+Q2o6ZoBkJUcV2S2Iz6ohmsjFSRXZLVjFqjGQhRRXZJSjPpjvZUx6g9moGQ/BQZNUgzEJJPfqMWaQZC8slv1CTNQEg++c3apJkokcV2SWYz65RmokQW3iXJzaxZmokSWYSX5DezfmkmayVZjJekOLOWaSZKZDFekuXQNQ1d09A17RkhuqaJDV3T0DUNXdNKNnRNQ9c0raNC17Q1f43vo2va0w1d0x63Bm7S+s6aCwAHOMABDnCAAxzgAAc4wAHOxuN8Zz0HQAMa0IAGNKABDWhAAxrQgGZzaP42vQ6AAxzgAAc4wAEOcIADHOAAp74fuqYVG7qmrbqm7W1G17TRBnRNG7XWNW03fya0bocbKqEhldAOldCISmiXSmiPSmifSuiASmjt4XszJbLYtsmC2yaLbpssvG2y+LbJAtwmi3CbLMRtshh3yGLcoVu/yWLcIYtxRy/G1bumrWvV75pmoiM/S/W7ppnoyFeB+l3TTHTkK0D9rmkmOvLZb9A1zUiIKqJL0ptB1zQjIaqgLsltBl3TjISo4roksRl0TTNaGakiuySrGXRNMxKiiuySlFa/a9q6jkHXNCMh+Sky6JpmJCSf/AZd04yE5JPfoGuakZB88pt0TTNTIovtksxm0jXNTIksvEuSm0nXNDMlsggvyW8mXdPM1kqyGC9JcSZd08yUyGK8JMuhaxq6pqFr2jNCdE0TG7qmoWsauqaVbOiahq5pWkeFrmlr/hrfR9e0pxu6pj1uDdyk9Z01FwAOcIADHOAABzjAAQ5wgAOcjcf5znoOgAY0oAENaEADGtCABjSgAc3m0Pxteh0ABzjAAQ5wgAMc4AAHOMABTn0/dE0rNnRNW3VN29+Mrmm7G9A1bbe1rmmDvkPSNM1EZ0iks0OkMyLS2SXS2SPS2SfSOSDSWXvm3kiIKqJtqpC2qWLapgpqmyqqbaqwtqni2qYKbJsqsh2qyHbI1mqqyHaoItvRimz17mhrUvWboxnISM9Q/dZoBjLSeV+/MZqBjHTO12+LZiAjne8GTdFMdIjiWJ7GDDqimegQhbI8hxm0QzPRIYpmeQIz6IVmsg4SxbM8exk0QjPRIYpneeqq3wVtTcagCZqJjvT0GLRAM9GRTneDBmgmOtLpbtD+zERHOt1Nmp8ZCVFFtDyDmXQ+MxKiCmp5EjNpe2YkRBXX8jxm0vPMaGWkimx5KjNpeGYkRBXZ8myGbmfodoZuZ88I0e1MbOh2hm5n6HZWsqHbGbqdaR0Vup2t+Wt8H93Onm7odva4NXBz1XfWFAA4wAEOcIADHOAABzjAAQ5wNh7nO+sVABrQgAY0oAENaEADGtCABjSbQ/O36VEAHOAABzjAAQ5wgAMc4AAHOPX90O2s2NDtbNXt7GAzup3tbUC3s73Wup3ZO4P+4Mlm75A0PyOUHTYju9OM7KgZ2d1mZPeakd1vRvagGdm1Z/0pdRuaZ3ZDE81uaKbZDU01u6G5Zjc02eyGZpvd0HSzG5pvTkPzzWkqrzU035yG5ptjMt/Uu8qVKddvMkenqnp267ego1NVXcnqN6ijU1Vdxeq3r6NTVV3BDJrbEco2M7uUywWDTniEss1MMOVawaBtHqFsM3NMuVAw6LFHmBWamWXKVYJBQz5C2WZmmXKJUL97X5mqQTM/QlnVU2vQ6o9QVnUBM2gESCiruoAZtAkklFVdwEyaCFLqNjTPlCsFk46DlLoNTTXlYsGkPSGlbkOzTbleMOllSJknGppvyiWDSeNDSt2G5pty1YAuieiSiC6JzwjRJVFs6JKILonokliyoUsiuiRqHRW6JK75a3wfXRKfbuiS+Lg1cFPmd9ZMBDjAAQ5wgAMc4AAHOMABDnA2Huc76zECGtCABjSgAQ1oQAMa0IAGNJtD87fpbQIc4AAHOMABDnCAAxzgAAc49f2+QZfEj/xmxmM3ncecdd5soWni99U0kce3/piz/7gi8t5F0YyJCybuc94ZvNmMBor7G9BAcb+9Bori73U7NRHpDIl0doh0RkQ6u0Q6e0Q6+0Q6B0Q66w0GTISoItqmCmmbKqZtqqC2qaLapgprmyqubarAtqki26GKbIdsraaKbIcqsh2tyNZo7PdUyqCTX30Z6Rky6NVXX0Y67w268dWXkc55g3579WWk892ko56BDlEcy9OYSZM8Ax2iUJbnMJO+dwY6RNEsT2AmrewM1kGieJZnL5PudAY6RPEsT10GDeeeyph0mDPQkZ4ekx5yBjrS6W7SJc5ARzrdTfrAGehIp7tRpzcTIaqIlmcwo+ZtJkJUQS1PYkb92EyEqOJanseMWqyZrIxUkS1PZUZd00yEqCJbns2eCf0e+1Hspwtmsx7rnM3DLdGSarf3/9ywN7B7+d9f83FvaMvS3GDtP/SOj3d2Dg4ILJzmLYbNW+w0bzFq3mK3eYu95i32m7c4aN5iLbM35dHC/LZbmOB2CzPcbmGK2y3McbuFSW63MMvtFqa53cI8d1qY504bebyFee60MM+devPcyT3cVOYxUCurhkPH2d8lsJBfDTIL+cUgs5BfCzIL+ZJLZiFfccks5AsumYV8vSWzkC+3ZBYlZRWdRwvzu6SsovNoYYaXlFV0Hi3M8ZKyis6jhVleUlbRebQwz0vKKjqPNvJ4C/O8pKyi86g3z4fC403sSzycA7Wyyrb39oZDAgv51SCzkF8MMgv5tSCzkC+5ZBbyFZfMQr7gklnI11syC/m9UWQWJTcE0nnI76ii85DfbEXnIb8Pi85DfosWnYf8vkQ6D/kti3Qe8rsZ6TzkNzrSebQwz0vKKjqPNvJ4C4m8pKyi86iXyneEx8fpXOaxr1ZWHWTb6BWBhfxqkFnILwaZhfxakFnIyyoyC3lZRWYhL6vILORlFZmFfLklsygpq+g85GUVnYe8rKLzkJdVdB7ysorOQ15W0XnIyyo6D3lZRechL6voPFqY5yVlFZ1HG3m8hUReUlbRedRL5SPh8R/uyTz21Mqq169PTvb2CCzkV4PMQn4xyCzk14LMQl5WkVnIyyoyC3lZRWYhL6vILOTLLZlFSVlF5yEvq+g85GUVnYe8rKLzkJdVdB7ysorOQ15W0XnIyyo6D3lZRefRwjwvKavoPNrI4y0k8pKyis6jXirfzUu3OZd57KqVVScnu7skFvKrQWYhvxhkFvJrQWYhL6vILORlFZmFvKwis5CXVWQW8uWWzKKkrKLzkJdVdB7ysorOQ15W0XnIyyo6D3lZRechL6voPORlFZ2HvKyi82hhnpeUVXQebeTxFhJ5SVlF51Evle8Jj18j2W3xzkitrNrfd5zRiMBCfjXILOQXg8xCfi3ILORlFZmFvKwis5CXVWQW8rKKzKKs7xSRRWmzNSqPsm5VVB5ljayoPMp6XFF5lLW/ovIo6/lG5VHWDo7Ko6xTHJVHWRM5Ko8W5nlJWUXn0UYebyGRl5RVdB7VqfyTSofXoiczO2Ihv1s1kM37xnaS20k37wBb2Sp21dg54emraB56SWc06DLbHnXZUPzNGam1m73PMB6bUnveiZvySRQvju/9ZNkW+fH4FbpHZwLvY4/HH+aiS7HyjoJjsc7xK3eTecyXGKLRcnHeG27PjWEMYxjDGMYwhjGMYQxjGMMYxjCGMYxhDGMYwxjGMIYxjGEMYxjDGMYwhjGMYQxjGMMYxjCGMYxhDGMYwxjGMIYxjGEMYxjDGMYwhjGM4f9Tw4t+dMvj2Pf4r654sNbuDwyfVxWPxibrj8ae8djnSfF4rdVdPUA8C6K0H/ghr3xENvnac7rVT9Ym/fzV87MocFM/CjMoK0n5rHfJr6KYW2pPPr/jEx566we0/KyzO+iyoXhyeSAeZBZ/WAG/SgVYhfRKtn8x4elpmIrzk1lczcNxTtrZYn9WSKwI+ePe55XPcovNv2KddOon/SS/KmpGYnuyUz87f6fueNr5C1hXbYUvHh3P2Avdi1mU+ELwdfaxytGsNiHzFao4utNDWmH5ocfFfOjZXc29V9t13R2vfB6IeOsU53Q5TyZxNJ9xj/34I/tH8fl9/2LqJsXz72KCbT0dXXx1NDshfXcyeSM8+gEPJ+mUvWQO+zezjoPAYofr30gCf8w7PXvrfPBpq3K+PTuSKGad6+xQBj+x68ymCNXCV3z2z2zF0b9AYhNhXOidX3/qf+YLdnR0tDx59RRz1eKyX+se6mq7jLn7uc7OD5r76H5fnK/i6I5EWItgKCIlb+TQv3CTxJ+E3DsRLSKS8/xMfqp3KlcXejZPpp261yK7pIfL61l/JgXBocpR9sU367okaRx95mo+y+/WdYpm7thPF2pWxZdrH1VusbKqq7JaSNaXlTrTQ3vxEdtqOq8vPKzHbF01nemmzvrQzbOq0vcfqmoKsW1vs9//+Mj++/6PD+zs/YePv/z2M3v3/udfTtjb0w+nagJvslWb37uiRGNpxJIoTlk4v8niYMzyliYJc5NxVrz44URBcXXuhc6TzOx22aX64hLzdB6HbObGCX8TRG7accWSv5VdyiefXeafKZ3M6hLtiW1xCFXCD812enmsP/Ppnk/2zguPX7nzIGWzOMrWMP6iy178sL9/cnJ6+qLhxjPAAQ5wgAMc4AAHOMABDnCA838ThyXzm+w/gZnHxYfMcxeCKOYeaEADGtCABjSgAQ1oQAMa0ICmnOYuvzXrC5rLYM6BAxzgAAc4wAEOcIADHOAABzh1cB7fG2iL9waezWXvDRza+S9sx8c7OwcHIAUpSEEKUpCCFKQgBSlIQQpSkIJ0M0idnNRNZaSDnHQ4dJz9XZCCFKQgBSlIQQpSkIIUpCAFKUhBuhmkQ0H6JvYlpM5BTmrbe3vDIUhBClKQghSkIAUpSEEKUpCCFKQg3QzSHUH6cTqXke7npAfZNnoFUpCCFKQgBSlIQQpSkIIUpCAFKUg3g3QkSP/DPRnpXk76+vXJyd4eSEEKUpCCFKQgBSlIQQpSkIIUpCDdDNLd/F8m5lxGupuTnpzs7oIUpCAFKUhBClKQghSkIAUpSEEK0k0h3ROkv0ayzoLOKCfd33ec0QikIAUpSEEKUpCCFKQgBSlIQQpSkLZGukLxYveuUyl230/9NOBnU3fG+ym/Tzsv3kbzOKnGWDzf87V/w8PEj8KAJ7lChcT2Njv2POayXInd+emUJdENZ96wYs/kdtJ3ZzMeeh1LeFtbFTustr6bpnHHure6bHegudMi28lR3ylJFwFf4vXccDyN4mx/K+BXGrSFxlUUpr077k+mqdC4jAJPXWN5bc5mvf9FIbfZ+6srf8zZ2SLpDdmbIO7Z7Gw87R2zt78H45u0l0Tz7DL87zf22+nJK/G1lN+wIfv97H/s/Xgsvvtiq+zCvtxOxrE/S/8l/c7Lbc+//fqwdB+5WKbFfO/IGouoP8lOlOuHPL5wDiyWn70jy/OTWeAuDv0wyIZ6l0E0/vyTJefLRJeHwNLFLNtfnMDta/fWXX5auqfYbt1YBCg7Yp5/Mwt4P+R3Z7eTjvXDc8Yu2xkM8j8qJ5yQ9dzUzXTP/7QC95IH1qHl8St3HqRsFkdXfsCt7nLk4t46tPuDrnXrBnNe/H0s1qVsn2ypOTk5PbUeuko6DpHOkEhnh0hnRKSzS6SzR6SzT6RzQKRjD6iEqCLapgppmyqmbaqgtqmi2qYKa5sqrm2qwLapItuhimyHbK2mimyHKrIdrchmyfzmZu1F1UoZLeaehoz0HOnJSM+Qnoz0/OjJSOe9nox01uvJSOe8nox0xuvJSOe7now8kWnqEMWxPI1p6hBFsjyJaeoQxbI8hWnqEEWzPIFp6hDFszx9aepQrctE8SzPXZo66vF854epftq6FB+p60hPj6aO9PRo6khPj6aOdLpr6kinu6aOdLpr6kinu6aOdLpr6sjzl64QVUTLM5iuEFVMy3OYrhBVVMuzmK4QVVzL85iuEFVkyzOZrhDZWk0V2fJkpiukHtmPv1xUvllYluYGa/+ht3z1MIGF07zFsHmLneYtRs1b7DZvsde8xX7zFgfNW6xl9qY8WpjfdgsT3G5hhtstTHG7hTlutzDJ7RZmud3CNLdbmOdOC/PcaSOPtzDPnRbmuVNvnle+wFGtrFq+4ZHAQn41yCzkF4PMQn4tyCzkSy6ZhXzFJbOQL7hkFvL1lsxCvtySWZSUVXQeLczvkrKKzqOFGV5SVtF5tDDHS8oqOo8WZnlJWUXn0cI8Lymr6DzayOMtzPOSsorOo948r3xPllpZtXyRFoGF/GqQWcgvBpmF/FqQWciXXDIL+YpLZiFfcMks5OstmYX83igyi5IbAuk85HdU0XnIb7ai85Dfh0XnIb9Fi85Dfl8inYf8lkU6D/ndjHQe8hsd6TxamOclZRWdRxt5vIVEXlJW0XnUS+WVryNRK6uW7yshsJBfDTIL+cUgs5BfCzILeVlFZiEvq8gs5GUVmYW8rCKzkC+3ZBYlZRWdh7ysovOQl1V0HvKyis5DXlbRecjLKjoPeVlF5yEvq+g85GUVnUcL87ykrKLzaCOPt5DIS8oqOo96qbyy67taWbVsC09gIb8aZBbyi0FmIb8WZBbysorMQl5WkVnIyyoyC3lZRWYhX27JLErKKjoPeVlF5yEvq+g85GUVnYe8rKLzkJdVdB7ysorOQ15W0XnIyyo6jxbmeUlZRefRRh5vIZGXlFV0HvVSeWVzXbWyatl9l8BCfjXILOQXg8xCfi3ILORlFZmFvKwis5CXVWQW8rKKzEK+3JJZlJRVdB7ysorOQ15W0XnIyyo6D3lZRechL6voPORlFZ2HvKyi85CXVXQeLczzkrKKzqONPN5CIi8pq+g86qXyyh6GamXVsskhgYX8apBZyC8GmYX8WpBZyMsqMgt5WUVmIS+ryCzkZRWZRVnfKSKL0mZrVB5l3aqoPMoaWVF5lPW4ovIoa39F5VHW843Ko6wdHJVHWac4Ko+yJnJUHi3M85Kyis6jjTzeQiIvKavoPKpT+SeVDq9F+2Z2xEJ+t2ogm/eN7SS3k27eAbayVeyqB3TC01fRPPSSzmjQZbY96rKh+JszUms3e59hPLa29rwTN+WTKF4c3/vJsofy4/ErNJrOBN7HHo8/zEVLY+UdBcdineNX7ibzmC8xRFfm4rw33OQbwxjGMIYxjGEMYxjDGMYwhjGMYQxjGMMYxjCGMYxhDGMYwxjGMIYxjGEMYxjDGMYwhjGMYQxjGMMYxjCGMYxhDGMYwxjGMIYxjGEMYxjD/6eGF/3olsex7/FfXfFgrd0fGD6vKh6NTdYfjT3jsc+T4vFaq7t6gHgWRGk/8ENe+Yhs8rXndKufrE36+avnZ1Hgpn4UZlBWkvJZ75JfRTG31J58fscnPPTWD2j5WWd30GVD8eTyQDzILP6wAn6VCrAK6ZVs/2LC09MwFecns7iah+OctLPF/qyQWBHyx73PK5/lFpt/xTrp1E/6SX5V1IzE9mSnfnb+Tt3xtPMXsK7aCl88Op6xF7oXsyjxheDr7GOVo1ltQuYrVHF0p4e0wvJDj4v50LO7mnuvtuu6O175PBDx1inO6XKeTOJoPuMe+/FH9o/i8/v+xdRNiuffxQTbejq6+OpodkL67mTyRnj0Ax5O0il7yRz2b2YdB4HFDte/kQT+mHd69tb54NNW5Xx7diRRzDrX2aEMfmLXmU0RqoWv+Oyf2Yqjf4HEJsK40Du//tT/zBfs6OhoefLqKeaqxWW/1j3U1XYZc/dznZ0fNPfR/b44X8XRHYmwFsFQREreyKF/4SaJPwm5dyJaRCTn+Zn8VO9Uri70bJ5MO3WvRXZJD5fXs/5MCoJDlaPsi2/WdUnSOPrM1XyW363rFM3csZ8u1KyKL9c+qtxiZVVXZbWQrC8rdaaH9uIjttV0Xl94WI/Zumo6002d9aGbZ1Wl7z9U1RRi295mv//xkf33/R8f2Nn7Dx9/+e1n9u79z7+csLenH07VBN5kqza/d0WJxtKIJVGcsnB+k8XBmOUtTRLmJuOsePHDiYLi6twLnSeZ2e2yS/XFJebpPA7ZzI0T/iaI3LTjiiV/K7uUTz67zD9TOpnVJdoT2+IQqoQfmu308lh/5tM9n+ydFx6/cudBymZxlK1h/EWXvfhhf//k5PT0RcONZ4ADHOAABzjAAQ5wgAMc4ADn/yYOS+Y32X8CM4+LD5nnLgRRzD3QgAY0oAENaEADGtCABjSgAU05zV1+a9YXNJfBnAMHOMABDnCAAxzgAAc4wAEOcOrgPL430BbvDTyby94bOLTzX9iOj3d2Dg5AClKQghSkIAUpSEEKUpCCFKQgBelmkDo5qZvKSAc56XDoOPu7IAUpSEEKUpCCFKQgBSlIQQpSkIJ0M0iHgvRN7EtInYOc1Lb39oZDkIIUpCAFKUhBClKQghSkIAUpSEG6GaQ7gvTjdC4j3c9JD7Jt9AqkIAUpSEEKUpCCFKQgBSlIQQpSkG4G6UiQ/od7MtK9nPT165OTvT2QghSkIAUpSEEKUpCCFKQgBSlIQboZpLv5v0zMuYx0Nyc9OdndBSlIQQpSkIIUpCAFKUhBClKQghSkm0K6J0h/jWSdBZ1RTrq/7zijEUhBClKQghSkIAUpSEEKUpCCFKQgbY10heLF7l2nUuy+n/ppwM+m7oz3U36fdl68jeZxUo2xeL7na/+Gh4kfhQFPcoUKie1tdux5zGW5Ervz0ylLohvOvGHFnsntpO/OZjz0OpbwtrYqdlhtfTdN4451b3XZ7kBzp0W2k6O+U5IuAr7E67nheBrF2f5WwK80aAuNqyhMe3fcn0xToXEZBZ66xvLanM16/4tC7rA3fsjZWRrF7iT730XS22Fvgrhns7PxtHfM3v4ejG/SXhLNs4vxv9/Yb6cnr8TXUn7DdtjvZ/9j78dj8d0XW2WX9+V2Mo79Wfov6Xdebnv+7deHpfvIxTIt5ntH1ljE/kl2utzsMOOL4cBi+Tk8sjw/mQXu4tAPg2yodxlE488/WXK+THR5CCxdzLL9xWncvnZv3eWnpXuK7daNRZiyI+b5N7OA90N+d3Y76Vg/PGfssp3BIP+jctoJWc9N3Uz3/E8rcC95YB1aHr9y50HKZnF05Qfc6i5HLu6tQ7s/6Fq3bjDnxd/HYnXK9skWnJOT01Proauk4xDpDIl0doh0RkQ6u0Q6e0Q6+0Q6B0Q69oBKiCqibaqQtqli2qYKapsqqm2qsLap4tqmCmybKrIdqsh2yNZqqsh2qCLb0YpslsxvbtZeV62U0WLuachIz5GejPQM6clIz4+ejHTe68lIZ72ejHTO68lIZ7yejHS+68nIE5mmDlEcy9OYpg5RJMuTmKYOUSzLU5imDlE0yxOYpg5RPMvTl6YO1bpMFM/y3KWpox7Pd36Y6qetS/GRuo709GjqSE+Ppo709GjqSKe7po50umvqSKe7po50umvqSKe7po48f+kKUUW0PIPpClHFtDyH6QpRRbU8i+kKUcW1PI/pClFFtjyT6QqRrdVUkS1PZrpC6pH9+PtF5fuFZWlusPYfessXEBNYOM1bDJu32GneYtS8xW7zFnvNW+w3b3HQvMVaZm/Ko4X5bbcwwe0WZrjdwhS3W5jjdguT3G5hltstTHO7hXnutDDPnTbyeAvz3Glhnjv15nnlaxzVyqrlex4JLORXg8xCfjHILOTXgsxCvuSSWchXXDIL+YJLZiFfb8ks5MstmUVJWUXn0cL8Limr6DxamOElZRWdRwtzvKSsovNoYZaXlFV0Hi3M85Kyis6jjTzewjwvKavoPOrN88q3ZamVVcvXaRFYyK8GmYX8YpBZyK8FmYV8ySWzkK+4ZBbyBZfMQr7eklnI740isyi5IZDOQ35HFZ2H/GYrOg/5fVh0HvJbtOg85Pcl0nnIb1mk85DfzUjnIb/Rkc6jhXleUlbRebSRx1tI5CVlFZ1HvVRe+VIStbJq+dYSAgv51SCzkF8MMgv5tSCzkJdVZBbysorMQl5WkVnIyyoyC/lyS2ZRUlbRecjLKjoPeVlF5yEvq+g85GUVnYe8rKLzkJdVdB7ysorOQ15W0Xm0MM9Lyio6jzbyeAuJvKSsovOol8ore7+rlVXL5vAEFvKrQWYhvxhkFvJrQWYhL6vILORlFZmFvKwis5CXVWQW8uWWzKKkrKLzkJdVdB7ysorOQ15W0XnIyyo6D3lZRechL6voPORlFZ2HvKyi82hhnpeUVXQebeTxFhJ5SVlF51EvlVe22FUrq5Y9eAks5FeDzEJ+Mcgs5NeCzEJeVpFZyMsqMgt5WUVmIS+ryCzkyy2ZRUlZRechL6voPORlFZ2HvKyi85CXVXQe8rKKzkNeVtF5yMsqOg95WUXn0cI8Lymr6DzayOMtJPKSsorOo14qr+xkqFZWLVsdEljIrwaZhfxikFnIrwWZhbysIrOQl1VkFvKyisxCXlaRWZT1nSKyKG22RuVR1q2KyqOskRWVR1mPKyqPsvZXVB5lPd+oPMrawVF5lHWKo/IoayJH5dHCPC8pq+g82sjjLSTykrKKzqM6lX9S6fBaNHFmRyzkd6sGsnnf2E5yO+nmHWArW8WuOkEnPH0VzUMv6YwGXWbboy4bir85I7V2s/cZxmODa887cVM+ieLF8b2fLDspPx6/QrvpTOB97PH4w1w0NlbeUXAs1jl+5W4yj/kSQ/RmLs57w62+MYxhDGMYwxjGMIYxjGEMYxjDGMYwhjGMYQxjGMMYxjCGMYxhDGMYwxjGMIYxjGEMYxjDGMYwhjGMYQxjGMMYxjCGMYxhDGMYwxjGMIYx/H9qeNGPbnkc+x7/1RUP1tr9geHzquLR2GT90dgzHvs8KR6vtbqrB4hnQZT2Az/klY/IJl97Trf6ydqkn796fhYFbupHYQZlJSmf9S75VRRzS+3J53d8wkNv/YCWn3V2B102FE8uD8SDzOIPK+BXqQCrkF7J9i8mPD0NU3F+MoureTjOSTtb7M8KiRUhf9z7vPJZbrH5V6yTTv2kn+RXRc1IbE926mfn79QdTzt/AeuqrfDFo+MZe6F7MYsSXwi+zj5WOZrVJmS+QhVHd3pIKyw/9LiYDz27q7n3aruuu+OVzwMRb53inC7nySSO5jPusR9/ZP8oPr/vX0zdpHj+XUywraeji6+OZiek704mb4RHP+DhJJ2yl8xh/2bWcRBY7HD9G0ngj3mnZ2+dDz5tVc63Z0cSxaxznR3K4Cd2ndkUoVr4is/+ma04+hdIbCKMC73z60/9z3zBjo6OlievnmKuWlz2a91DXW2XMXc/19n5QXMf3e+L81Uc3ZEIaxEMRaTkjRz6F26S+JOQeyeiRURynp/JT/VO5epCz+bJtFP3WmSX9HB5PevPpCA4VDnKvvhmXZckjaPPXM1n+d26TtHMHfvpQs2q+HLto8otVlZ1VVYLyfqyUmd6aC8+YltN5/WFh/WYraumM93UWR+6eVZV+v5DVU0htu1t9vsfH9l/3//xgZ29//Dxl99+Zu/e//zLCXt7+uFUTeBNtmrze1eUaCyNWBLFKQvnN1kcjFne0iRhbjLOihc/nCgors690HmSmd0uu1RfXGKezuOQzdw44W+CyE07rljyt7JL+eSzy/wzpZNZXaI9sS0OoUr4odlOL4/1Zz7d88neeeHxK3cepGwWR9kaxl902Ysf9vdPTk5PXzTceAY4wAEOcIADHOAABzjAAQ5w/m/isGR+k/0nMPO4+JB57kIQxdwDDWhAAxrQgAY0oAENaEADGtCU09zlt2Z9QXMZzDlwgAMc4AAHOMABDnCAAxzgAKcOzuN7A23x3sCzuey9gUM7/4Xt+Hhn5+AApCAFKUhBClKQghSkIAUpSEEKUpBuBqmTk7qpjHSQkw6HjrO/C1KQghSkIAUpSEEKUpCCFKQgBSlIN4N0KEjfxL6E1DnISW17b284BClIQQpSkIIUpCAFKUhBClKQghSkm0G6I0g/Tucy0v2c9CDbRq9AClKQghSkIAUpSEEKUpCCFKQgBelmkI4E6X+4JyPdy0lfvz452dsDKUhBClKQghSkIAUpSEEKUpCCFKSbQbqb/8vEnMtId3PSk5PdXZCCFKQgBSlIQQpSkIIUpCAFKUhBuimke4L010jWWdAZ5aT7+44zGoEUpCAFKUhBClKQghSkIAUpSEEK0tZIVyhe7N51KsXu+6mfBvxs6s54P+X3aefF22geJ9UYi+d7vvZveJj4URjwJFeokNjeZseex1yWK7E7P52yJLrhzBtW7JncTvrubMZDr2MJb2urYofV1nfTNO5Y91aX7Q40d1pkOznqOyXpIuBLvJ4bjqdRnO1vBfxKg7bQuIrCtHfH/ck0FRqXUeCpayyvzdms978o5EP2ah58ZmdpFLsTzs4WSW+HvQnins3OxtPeMXv7ezC+SXvcTVL2v9/Yb6cnr8S3Un7DdtjvZ/9j78dj8dUXW2VX9+V2Mo79Wfov6Xdebnv+7deHpfvIxTIt5ntH1liE/kl2tlw/5PHF0LZYfgqPLM9PZoG7OPTDIBvqXQbR+PNPlpwvE10eAksXs2x/cRa3r91bd/lp6Z5iu3VjEaXsiHn+zSzg/ZDfnd1OOtYPzxm7bGcwyP+onHVC1nNTN9M9/9MK3EseWIeWx6/ceZCyWRxd+QG3usuRi3vr0O4PutatG8y5dbh70D94su0fdK2xWKoyhWz1OTk5PbUeukqqTiOqw0ZUdxpRHTWiutuI6l4jqvuNqB40omoPmpFtZnbZzUwvu5n5ZTczwexmZpjdzBSzm5ljdjOTzG5mljnNzDKnoRzWzCxzmplljsEsY8n85mbt7d81KoSYexqiiudWT1TxzOqJKp5XPVHFtUtPVHHl0hNVXLf0RBVXLT1RxTVLT1S1MNBUbWROqZYFmqqNzCrVokBTtZF5pVoSaKo2MrNUCwJN1Ubmlmo5oKnaTL5qZG6p1gKaqnXn1p0fpqZlwKX4grqq4mnVVFU8rZqqiqdVU1VxydJUVVyyNFUVlyxNVcUlS1NVccnSVFWtB3Rlm5ldqhWBrmwz80u1JtCVbWaGqVYFurLNzDHVukBXtplZploZ6Mo2lMOamWWqxYGurNYs+6Tyg0PxkyI7YiG/W/2ekf+M0UluJ938B4nKXy5Wv0smPH0VzUMv6YwGXWbboy4bir85I7VfP+4zjMefWz3vxE35JIoXx/d+svxd7/FUKPz4mQm8jz0ef5iLn9mUdxQci3WOX7mbzGO+xBC/FBaXwPTn3Px3pHWrMx77PClwM6figsyCKO2LH7cqLZOvHXc1adLP424WBW7qR2EGZSUpn/Uu+VUUc0stkt7xCQ+99QNaftbZzaJgKCJB/Bhmiz+KX0srf0heyfYvJjw9DVNxfjKLq3k4zkk7W+xPhZ9LBSF/3Pu8cm6Izb9inXTqJ1lci/3UjMT2ZKd+dv5O3fG08xewrtoKv/htsNC9mEWJLwRfZx+rHM1qEzJfoYqjOz2kFZYfelxM3J7d1dx7tV3X3fHK54GIt05xTpfzZBJH8xn32I8/sn8Un9/3L6ZuUqwnYoJtPR1dfHU0OyF9dzJ5Izz6AQ8n6ZS9ZA77N7OOg8Bih+vfSAJ/zDs9e+t88Gmrcr49O5IoZp3r7FAGP7HrzKYI1cJXfPbPI2brXyCxiTAu9M6vP/U/82x5Ozpanrx6irlqcdmvdQ91tV3G3P1cZ+cHzX10vy/OV3F0RyKsRTAUkZInxv7F8lYg7uU3AyXn+Zn8VO9Uri70bJ5MO3WvRXZJD5fXs/5MCoJDlaPsi2/WdUnSOPrM1XyW363rFM3csZ8u1KyKL9c+qtxiZVVXZbWQrC8rdaaH9uIjttV0Xl94WI/Zumo6002d9aGbZ1Wl7z9U1RRi295mv//xkf33/R8f2Nn7Dx9/+e1n9u79z7+csLenH07VBN5kqza/d0WJxtKIJVFWSIfzmywOxiwvERPmJuOsePHDiYLi6twLnSeZ2e2yS/XFJebpPA7ZzI0T/iaI3LTjiiV/K7uUTz67zD9TOpnVJdoT2+IQqoQfvsEtm1/8AFvclyl+UP0md5ACBzjAAQ5wgAMc4AAHOMABzsbjPL/BRRDF3AMNaEADGtCABjSgAQ1oQAMa0JTTPLslUNCIW/yAAxzgAAc4wAEOcIADHOAABzjfsFHiR34z47GbzmPOOm+20Crxu2qV+B9XRNxbnv/P8c2lz8OUiUsm+h5yb56d/x7bG7zZjBaIzga0QHRaa4GYP3hatwUTkc6QSGeHSGdEpLNLpLNHpLNPpHNApLPWW8BIiCqibaqQtqli2qYKapsqqm2qsLap4tqmCmybKrIdqsh2yNZqqsh2qCLb0Yps9ZZ9a1L1m/QZyEjPUP1GfAYy0nlfv9megYx0ztdvqGcgI53vBk3zTHSI4liexgxa4ZnoEIWyPIcZNLgz0SGKZnkCM2hbZ7IOEsWzPHsZNKMz0SGKZ3nqqt9ibk3GoKmciY709Bg0jjPRkU53g+ZwJjrS6W7QAM5ERzrdTZq8GQlRRbQ8g5m0bjMSogpqeRIzachmJEQV1/I8ZtJmzWhlpIpseSozaZ5mJEQV2fJshpZoG9ESDcMYxjCGMYxhDGMYwxjGMIYxjGEMYxjD39Pwoh/d8jj2Pf6rK/6hyu4P0BL/yZGgJf7jhpb4Whta4qMlvsaGlvhfbmiJ/+WGlviaG1rioyX+Vze0xAcOcIADHOAABzjAAQ5wgAMc4GxCQ0nQgAY0oAENaEADGtCABjSg2Ryav00jS+AABzjAAQ5wgAMc4AAHOMCp7/cNWuK/9m94mPhRGPAkQUP876shfhR/ZqdXV/7Y5+F48dgGv90G+MW3vxh5+v9Xf1/+76N68ZfH/7mMvIX432l6E/zr//v/AcTbb7I="
               },
               {
                  "name" : "annual_peak_electric_demand",
                  "units" : "kW",
                  "value" : 318.51345000000003
               },
               {
                  "name" : "first_year_capital_cost",
                  "units" : "$",
                  "value" : 0
               },
               {
                  "name" : "annual_utility_cost",
                  "units" : "$",
                  "value" : 0
               },
               {
                  "name" : "total_lifecycle_cost",
                  "units" : "$",
                  "value" : 0
               }
            ],
            "step_warnings" : [ "A table in Annual Overview section returned false and was skipped." ]
         }
      }
   ],
   "updated_at" : "20170710T193623Z",
   "weather_file" : "USA_CO_Denver.Intl.AP.725650_TMY3.epw"
}
