{
   "completed_at" : "20170710T184751Z",
   "completed_status" : "Success",
   "created_at" : "2017-07-10 18:45:43 +0000",
   "current_step" : 5,
   "description" : "",
   "eplusout_err" : "Program Version,EnergyPlus, Version 8.7.0-78a111df4a, YMD=2017.07.10 18:46,IDD_Version 8.7.0\n   ************* IDF Context for following error/warning message:\n   ************* Note -- lines truncated at 300 characters, if necessary...\n   *************      5 Building,\n   ************* indicated Name=NECB 2011-RetailStandalone-NECB HDD Method-CAN_PQ_Sept-Iles.718110_CWEC.epw created: 2017-07-10 18:45:49 +0000\n   ************* Only last 1 lines before error line shown.....\n   *************      6   NECB 2011-RetailStandalone-NECB HDD Method-CAN_PQ_Sept-Iles.718110_CWEC.epw created: 2017-07-10 18:45:49 +0000, !- Name\n   ** Warning ** IP: IDF line~6 Alpha Argument length exceeds maximum, will be truncated=  NECB 2011-RetailStandalone-NECB HDD Method-CAN_PQ_Sept-Iles.718110_CWEC.epw created: 2017-07-10 18:45:49 +000\n   **   ~~~   ** Will be processed as Alpha=NECB 2011-RETAILSTANDALONE-NECB HDD METHOD-CAN_PQ_SEPT-ILES.718110_CWEC.EPW CREATED: 2017-07-10 18:45:49 +0000\n   ************* Beginning Zone Sizing Calculations\n   ** Warning ** ProcessScheduleInput: Schedule:Day:Interval=\"ECONOMIZER MAX OA FRACTION 100 PCT DEFAULT\", Blank Schedule Type Limits Name input -- will not be validated.\n   ** Warning ** ProcessScheduleInput: Schedule:Day:Interval=\"SCHEDULE DAY 1\", Blank Schedule Type Limits Name input -- will not be validated.\n   ** Warning ** ProcessScheduleInput: Schedule:Day:Interval=\"SCHEDULE DAY 10\", Blank Schedule Type Limits Name input -- will not be validated.\n   ** Warning ** ProcessScheduleInput: Schedule:Day:Interval=\"SCHEDULE DAY 11\", Blank Schedule Type Limits Name input -- will not be validated.\n   ** Warning ** ProcessScheduleInput: Schedule:Day:Interval=\"SCHEDULE DAY 12\", Blank Schedule Type Limits Name input -- will not be validated.\n   ** Warning ** ProcessScheduleInput: Schedule:Day:Interval=\"SCHEDULE DAY 13\", Blank Schedule Type Limits Name input -- will not be validated.\n   ** Warning ** ProcessScheduleInput: Schedule:Day:Interval=\"SCHEDULE DAY 14\", Blank Schedule Type Limits Name input -- will not be validated.\n   ** Warning ** ProcessScheduleInput: Schedule:Day:Interval=\"SCHEDULE DAY 15\", Blank Schedule Type Limits Name input -- will not be validated.\n   ** Warning ** ProcessScheduleInput: Schedule:Day:Interval=\"SCHEDULE DAY 16\", Blank Schedule Type Limits Name input -- will not be validated.\n   ** Warning ** ProcessScheduleInput: Schedule:Day:Interval=\"SCHEDULE DAY 17\", Blank Schedule Type Limits Name input -- will not be validated.\n   ** Warning ** ProcessScheduleInput: Schedule:Day:Interval=\"SCHEDULE DAY 18\", Blank Schedule Type Limits Name input -- will not be validated.\n   ** Warning ** ProcessScheduleInput: Schedule:Day:Interval=\"SCHEDULE DAY 19\", Blank Schedule Type Limits Name input -- will not be validated.\n   ** Warning ** ProcessScheduleInput: Schedule:Day:Interval=\"SCHEDULE DAY 2\", Blank Schedule Type Limits Name input -- will not be validated.\n   ** Warning ** ProcessScheduleInput: Schedule:Day:Interval=\"SCHEDULE DAY 20\", Blank Schedule Type Limits Name input -- will not be validated.\n   ** Warning ** ProcessScheduleInput: Schedule:Day:Interval=\"SCHEDULE DAY 21\", Blank Schedule Type Limits Name input -- will not be validated.\n   ** Warning ** ProcessScheduleInput: Schedule:Day:Interval=\"SCHEDULE DAY 22\", Blank Schedule Type Limits Name input -- will not be validated.\n   ** Warning ** ProcessScheduleInput: Schedule:Day:Interval=\"SCHEDULE DAY 23\", Blank Schedule Type Limits Name input -- will not be validated.\n   ** Warning ** ProcessScheduleInput: Schedule:Day:Interval=\"SCHEDULE DAY 24\", Blank Schedule Type Limits Name input -- will not be validated.\n   ** Warning ** ProcessScheduleInput: Schedule:Day:Interval=\"SCHEDULE DAY 5\", Blank Schedule Type Limits Name input -- will not be validated.\n   ** Warning ** ProcessScheduleInput: Schedule:Day:Interval=\"SCHEDULE DAY 6\", Blank Schedule Type Limits Name input -- will not be validated.\n   ** Warning ** ProcessScheduleInput: Schedule:Day:Interval=\"SCHEDULE DAY 7\", Blank Schedule Type Limits Name input -- will not be validated.\n   ** Warning ** ProcessScheduleInput: Schedule:Day:Interval=\"SCHEDULE DAY 8\", Blank Schedule Type Limits Name input -- will not be validated.\n   ** Warning ** ProcessScheduleInput: Schedule:Day:Interval=\"SCHEDULE DAY 9\", Blank Schedule Type Limits Name input -- will not be validated.\n   ** Warning ** ProcessScheduleInput: Schedule:Year=\"ECONOMIZER MAX OA FRACTION 100 PCT\", Blank Schedule Type Limits Name input -- will not be validated.\n   ** Warning ** ProcessScheduleInput: Schedule:Year=\"SCHEDULE RULESET 10\", Blank Schedule Type Limits Name input -- will not be validated.\n   ** Warning ** ProcessScheduleInput: Schedule:Year=\"SCHEDULE RULESET 11\", Blank Schedule Type Limits Name input -- will not be validated.\n   ** Warning ** ProcessScheduleInput: Schedule:Year=\"SCHEDULE RULESET 12\", Blank Schedule Type Limits Name input -- will not be validated.\n   ** Warning ** ProcessScheduleInput: Schedule:Year=\"SCHEDULE RULESET 13\", Blank Schedule Type Limits Name input -- will not be validated.\n   ** Warning ** ProcessScheduleInput: Schedule:Year=\"SCHEDULE RULESET 14\", Blank Schedule Type Limits Name input -- will not be validated.\n   ** Warning ** ProcessScheduleInput: Schedule:Year=\"SCHEDULE RULESET 3\", Blank Schedule Type Limits Name input -- will not be validated.\n   ** Warning ** ProcessScheduleInput: Schedule:Year=\"SCHEDULE RULESET 4\", Blank Schedule Type Limits Name input -- will not be validated.\n   ** Warning ** ProcessScheduleInput: Schedule:Year=\"SCHEDULE RULESET 5\", Blank Schedule Type Limits Name input -- will not be validated.\n   ** Warning ** ProcessScheduleInput: Schedule:Year=\"SCHEDULE RULESET 6\", Blank Schedule Type Limits Name input -- will not be validated.\n   ** Warning ** ProcessScheduleInput: Schedule:Year=\"SCHEDULE RULESET 7\", Blank Schedule Type Limits Name input -- will not be validated.\n   ** Warning ** ProcessScheduleInput: Schedule:Year=\"SCHEDULE RULESET 8\", Blank Schedule Type Limits Name input -- will not be validated.\n   ** Warning ** ProcessScheduleInput: Schedule:Year=\"SCHEDULE RULESET 9\", Blank Schedule Type Limits Name input -- will not be validated.\n   ** Warning ** ProcessScheduleInput: Schedule:Constant=\"ALWAYS OFF DISCRETE\", Blank Schedule Type Limits Name input -- will not be validated.\n   ** Warning ** ProcessScheduleInput: Schedule:Constant=\"ALWAYS ON CONTINUOUS\", Blank Schedule Type Limits Name input -- will not be validated.\n   ** Warning ** CheckUsedConstructions: There are 25 nominally unused constructions in input.\n   **   ~~~   ** For explicit details on each unused construction, use Output:Diagnostics,DisplayExtraWarnings;\n   ** Severe  ** Problem in interior solar distribution calculation (CHKBKS)\n   **   ~~~   **    Solar Distribution = FullInteriorExterior will not work in Zone=SP-CORE_RETAIL SYS-3 FLR-1 SCH-C HPLCMT-EAST ZN\n   **   ~~~   **    because vertex 2 of back surface=CORE_RETAIL_WALL_EAST_1 is in front of receiving surface=CORE_RETAIL_ROOF\n   **   ~~~   **    (Dot Product indicator=459.6689)\n   **   ~~~   **    Check surface geometry; if OK, use Solar Distribution = FullExterior instead.\n   ** Severe  ** Problem in interior solar distribution calculation (CHKBKS)\n   **   ~~~   **    Solar Distribution = FullInteriorExterior will not work in Zone=SP-CORE_RETAIL SYS-3 FLR-1 SCH-C HPLCMT-EAST ZN\n   **   ~~~   **    because vertex 3 of back surface=CORE_RETAIL_WALL_EAST_1 is in front of receiving surface=CORE_RETAIL_ROOF\n   **   ~~~   **    (Dot Product indicator=459.6689)\n   **   ~~~   **    Check surface geometry; if OK, use Solar Distribution = FullExterior instead.\n   ** Severe  ** Problem in interior solar distribution calculation (CHKBKS)\n   **   ~~~   **    Solar Distribution = FullInteriorExterior will not work in Zone=SP-CORE_RETAIL SYS-3 FLR-1 SCH-C HPLCMT-EAST ZN\n   **   ~~~   **    because vertex 2 of back surface=CORE_RETAIL_WALL_EAST_2 is in front of receiving surface=CORE_RETAIL_ROOF\n   **   ~~~   **    (Dot Product indicator=459.6689)\n   **   ~~~   **    Check surface geometry; if OK, use Solar Distribution = FullExterior instead.\n   ** Severe  ** Problem in interior solar distribution calculation (CHKBKS)\n   **   ~~~   **    Solar Distribution = FullInteriorExterior will not work in Zone=SP-CORE_RETAIL SYS-3 FLR-1 SCH-C HPLCMT-EAST ZN\n   **   ~~~   **    because vertex 3 of back surface=CORE_RETAIL_WALL_EAST_2 is in front of receiving surface=CORE_RETAIL_ROOF\n   **   ~~~   **    (Dot Product indicator=459.6689)\n   **   ~~~   **    Check surface geometry; if OK, use Solar Distribution = FullExterior instead.\n   ** Severe  ** Problem in interior solar distribution calculation (CHKBKS)\n   **   ~~~   **    Solar Distribution = FullInteriorExterior will not work in Zone=SP-CORE_RETAIL SYS-3 FLR-1 SCH-C HPLCMT-EAST ZN\n   **   ~~~   **    because vertex 2 of back surface=CORE_RETAIL_WALL_NORTH is in front of receiving surface=CORE_RETAIL_ROOF\n   **   ~~~   **    (Dot Product indicator=459.6689)\n   **   ~~~   **    Check surface geometry; if OK, use Solar Distribution = FullExterior instead.\n   ** Severe  ** Problem in interior solar distribution calculation (CHKBKS)\n   **   ~~~   **    Solar Distribution = FullInteriorExterior will not work in Zone=SP-CORE_RETAIL SYS-3 FLR-1 SCH-C HPLCMT-EAST ZN\n   **   ~~~   **    because vertex 3 of back surface=CORE_RETAIL_WALL_NORTH is in front of receiving surface=CORE_RETAIL_ROOF\n   **   ~~~   **    (Dot Product indicator=459.6689)\n   **   ~~~   **    Check surface geometry; if OK, use Solar Distribution = FullExterior instead.\n   ** Severe  ** Problem in interior solar distribution calculation (CHKBKS)\n   **   ~~~   **    Solar Distribution = FullInteriorExterior will not work in Zone=SP-CORE_RETAIL SYS-3 FLR-1 SCH-C HPLCMT-EAST ZN\n   **   ~~~   **    because vertex 2 of back surface=CORE_RETAIL_WALL_SOUTH_1 is in front of receiving surface=CORE_RETAIL_ROOF\n   **   ~~~   **    (Dot Product indicator=459.6689)\n   **   ~~~   **    Check surface geometry; if OK, use Solar Distribution = FullExterior instead.\n   ** Severe  ** Problem in interior solar distribution calculation (CHKBKS)\n   **   ~~~   **    Solar Distribution = FullInteriorExterior will not work in Zone=SP-CORE_RETAIL SYS-3 FLR-1 SCH-C HPLCMT-EAST ZN\n   **   ~~~   **    because vertex 3 of back surface=CORE_RETAIL_WALL_SOUTH_1 is in front of receiving surface=CORE_RETAIL_ROOF\n   **   ~~~   **    (Dot Product indicator=459.6689)\n   **   ~~~   **    Check surface geometry; if OK, use Solar Distribution = FullExterior instead.\n   ** Severe  ** Problem in interior solar distribution calculation (CHKBKS)\n   **   ~~~   **    Solar Distribution = FullInteriorExterior will not work in Zone=SP-CORE_RETAIL SYS-3 FLR-1 SCH-C HPLCMT-EAST ZN\n   **   ~~~   **    because vertex 2 of back surface=CORE_RETAIL_WALL_SOUTH_2 is in front of receiving surface=CORE_RETAIL_ROOF\n   **   ~~~   **    (Dot Product indicator=459.6689)\n   **   ~~~   **    Check surface geometry; if OK, use Solar Distribution = FullExterior instead.\n   ** Severe  ** Problem in interior solar distribution calculation (CHKBKS)\n   **   ~~~   **    Solar Distribution = FullInteriorExterior will not work in Zone=SP-CORE_RETAIL SYS-3 FLR-1 SCH-C HPLCMT-EAST ZN\n   **   ~~~   **    because vertex 3 of back surface=CORE_RETAIL_WALL_SOUTH_2 is in front of receiving surface=CORE_RETAIL_ROOF\n   **   ~~~   **    (Dot Product indicator=459.6689)\n   **   ~~~   **    Check surface geometry; if OK, use Solar Distribution = FullExterior instead.\n   ** Severe  ** Problem in interior solar distribution calculation (CHKBKS)\n   **   ~~~   **    Solar Distribution = FullInteriorExterior will not work in Zone=SP-CORE_RETAIL SYS-3 FLR-1 SCH-C HPLCMT-EAST ZN\n   **   ~~~   **    because vertex 2 of back surface=CORE_RETAIL_WALL_SOUTH_3 is in front of receiving surface=CORE_RETAIL_ROOF\n   **   ~~~   **    (Dot Product indicator=459.6689)\n   **   ~~~   **    Check surface geometry; if OK, use Solar Distribution = FullExterior instead.\n   ** Severe  ** Problem in interior solar distribution calculation (CHKBKS)\n   **   ~~~   **    Solar Distribution = FullInteriorExterior will not work in Zone=SP-CORE_RETAIL SYS-3 FLR-1 SCH-C HPLCMT-EAST ZN\n   **   ~~~   **    because vertex 3 of back surface=CORE_RETAIL_WALL_SOUTH_3 is in front of receiving surface=CORE_RETAIL_ROOF\n   **   ~~~   **    (Dot Product indicator=459.6689)\n   **   ~~~   **    Check surface geometry; if OK, use Solar Distribution = FullExterior instead.\n   ** Severe  ** Problem in interior solar distribution calculation (CHKBKS)\n   **   ~~~   **    Solar Distribution = FullInteriorExterior will not work in Zone=SP-CORE_RETAIL SYS-3 FLR-1 SCH-C HPLCMT-EAST ZN\n   **   ~~~   **    because vertex 2 of back surface=CORE_RETAIL_WALL_WEST_1 is in front of receiving surface=CORE_RETAIL_ROOF\n   **   ~~~   **    (Dot Product indicator=459.6689)\n   **   ~~~   **    Check surface geometry; if OK, use Solar Distribution = FullExterior instead.\n   ** Severe  ** Problem in interior solar distribution calculation (CHKBKS)\n   **   ~~~   **    Solar Distribution = FullInteriorExterior will not work in Zone=SP-CORE_RETAIL SYS-3 FLR-1 SCH-C HPLCMT-EAST ZN\n   **   ~~~   **    because vertex 3 of back surface=CORE_RETAIL_WALL_WEST_1 is in front of receiving surface=CORE_RETAIL_ROOF\n   **   ~~~   **    (Dot Product indicator=459.6689)\n   **   ~~~   **    Check surface geometry; if OK, use Solar Distribution = FullExterior instead.\n   ** Severe  ** Problem in interior solar distribution calculation (CHKBKS)\n   **   ~~~   **    Solar Distribution = FullInteriorExterior will not work in Zone=SP-CORE_RETAIL SYS-3 FLR-1 SCH-C HPLCMT-EAST ZN\n   **   ~~~   **    because vertex 2 of back surface=CORE_RETAIL_WALL_WEST_2 is in front of receiving surface=CORE_RETAIL_ROOF\n   **   ~~~   **    (Dot Product indicator=459.6689)\n   **   ~~~   **    Check surface geometry; if OK, use Solar Distribution = FullExterior instead.\n   ** Severe  ** Problem in interior solar distribution calculation (CHKBKS)\n   **   ~~~   **    Solar Distribution = FullInteriorExterior will not work in Zone=SP-CORE_RETAIL SYS-3 FLR-1 SCH-C HPLCMT-EAST ZN\n   **   ~~~   **    because vertex 3 of back surface=CORE_RETAIL_WALL_WEST_2 is in front of receiving surface=CORE_RETAIL_ROOF\n   **   ~~~   **    (Dot Product indicator=459.6689)\n   **   ~~~   **    Check surface geometry; if OK, use Solar Distribution = FullExterior instead.\n   ** Severe  ** Problem in interior solar distribution calculation (CHKBKS)\n   **   ~~~   **    Solar Distribution = FullInteriorExterior will not work in Zone=SP-CORE_RETAIL SYS-3 FLR-1 SCH-C HPLCMT-EAST ZN\n   **   ~~~   **    because vertex 1 of back surface=CORE_RETAIL_FLOOR is in front of receiving surface=CORE_RETAIL_ROOF\n   **   ~~~   **    (Dot Product indicator=459.6689)\n   **   ~~~   **    Check surface geometry; if OK, use Solar Distribution = FullExterior instead.\n   ** Severe  ** Problem in interior solar distribution calculation (CHKBKS)\n   **   ~~~   **    Solar Distribution = FullInteriorExterior will not work in Zone=SP-CORE_RETAIL SYS-3 FLR-1 SCH-C HPLCMT-EAST ZN\n   **   ~~~   **    because vertex 2 of back surface=CORE_RETAIL_FLOOR is in front of receiving surface=CORE_RETAIL_ROOF\n   **   ~~~   **    (Dot Product indicator=459.6689)\n   **   ~~~   **    Check surface geometry; if OK, use Solar Distribution = FullExterior instead.\n   ** Severe  ** Problem in interior solar distribution calculation (CHKBKS)\n   **   ~~~   **    Solar Distribution = FullInteriorExterior will not work in Zone=SP-CORE_RETAIL SYS-3 FLR-1 SCH-C HPLCMT-EAST ZN\n   **   ~~~   **    because vertex 3 of back surface=CORE_RETAIL_FLOOR is in front of receiving surface=CORE_RETAIL_ROOF\n   **   ~~~   **    (Dot Product indicator=459.6689)\n   **   ~~~   **    Check surface geometry; if OK, use Solar Distribution = FullExterior instead.\n   ** Severe  ** Problem in interior solar distribution calculation (CHKBKS)\n   **   ~~~   **    Solar Distribution = FullInteriorExterior will not work in Zone=SP-CORE_RETAIL SYS-3 FLR-1 SCH-C HPLCMT-EAST ZN\n   **   ~~~   **    because vertex 4 of back surface=CORE_RETAIL_FLOOR is in front of receiving surface=CORE_RETAIL_ROOF\n   **   ~~~   **    (Dot Product indicator=459.6689)\n   **   ~~~   **    Check surface geometry; if OK, use Solar Distribution = FullExterior instead.\n   ** Severe  ** Problem in interior solar distribution calculation (CHKBKS)\n   **   ~~~   **    Solar Distribution = FullInteriorExterior will not work in Zone=SP-CORE_RETAIL SYS-3 FLR-1 SCH-C HPLCMT-EAST ZN\n   **   ~~~   **    because vertex 5 of back surface=CORE_RETAIL_FLOOR is in front of receiving surface=CORE_RETAIL_ROOF\n   **   ~~~   **    (Dot Product indicator=459.6689)\n   **   ~~~   **    Check surface geometry; if OK, use Solar Distribution = FullExterior instead.\n   ** Severe  ** Problem in interior solar distribution calculation (CHKBKS)\n   **   ~~~   **    Solar Distribution = FullInteriorExterior will not work in Zone=SP-CORE_RETAIL SYS-3 FLR-1 SCH-C HPLCMT-EAST ZN\n   **   ~~~   **    because vertex 6 of back surface=CORE_RETAIL_FLOOR is in front of receiving surface=CORE_RETAIL_ROOF\n   **   ~~~   **    (Dot Product indicator=459.6689)\n   **   ~~~   **    Check surface geometry; if OK, use Solar Distribution = FullExterior instead.\n   ** Severe  ** Problem in interior solar distribution calculation (CHKBKS)\n   **   ~~~   **    Solar Distribution = FullInteriorExterior will not work in Zone=SP-CORE_RETAIL SYS-3 FLR-1 SCH-C HPLCMT-EAST ZN\n   **   ~~~   **    because vertex 7 of back surface=CORE_RETAIL_FLOOR is in front of receiving surface=CORE_RETAIL_ROOF\n   **   ~~~   **    (Dot Product indicator=459.6689)\n   **   ~~~   **    Check surface geometry; if OK, use Solar Distribution = FullExterior instead.\n   ** Severe  ** Problem in interior solar distribution calculation (CHKBKS)\n   **   ~~~   **    Solar Distribution = FullInteriorExterior will not work in Zone=SP-CORE_RETAIL SYS-3 FLR-1 SCH-C HPLCMT-EAST ZN\n   **   ~~~   **    because vertex 8 of back surface=CORE_RETAIL_FLOOR is in front of receiving surface=CORE_RETAIL_ROOF\n   **   ~~~   **    (Dot Product indicator=459.6689)\n   **   ~~~   **    Check surface geometry; if OK, use Solar Distribution = FullExterior instead.\n   ************* Beginning System Sizing Calculations\n   ************* Beginning Plant Sizing Calculations\n   ** Warning ** GetDXCoils: Coil:Cooling:DX:SingleSpeed=\"COIL COOLING DX SINGLE SPEED 5 44KBTU/HR 14.0SEER\", invalid\n   **   ~~~   ** ...Part Load Fraction Correlation Curve Name = DXCOOL-NECB2011-REF-COOLPLFFPLR 4 has out of range value.\n   **   ~~~   ** ...Curve maximum must be <= 1.0, curve max at PLR = 0.99 is 1.015\n   **   ~~~   ** ...Setting curve maximum to 1.0 and simulation continues.\n   ** Warning ** GetDXCoils: Coil:Cooling:DX:SingleSpeed=\"COIL COOLING DX SINGLE SPEED 1 205KBTU/HR 9.7EER\", invalid\n   **   ~~~   ** ...Part Load Fraction Correlation Curve Name = DXCOOL-NECB2011-REF-COOLPLFFPLR has out of range value.\n   **   ~~~   ** ...Curve maximum must be <= 1.0, curve max at PLR = 0.99 is 1.015\n   **   ~~~   ** ...Setting curve maximum to 1.0 and simulation continues.\n   ** Warning ** GetDXCoils: Coil:Cooling:DX:SingleSpeed=\"COIL COOLING DX SINGLE SPEED 2 8KBTU/HR 14.0SEER\", invalid\n   **   ~~~   ** ...Part Load Fraction Correlation Curve Name = DXCOOL-NECB2011-REF-COOLPLFFPLR 1 has out of range value.\n   **   ~~~   ** ...Curve maximum must be <= 1.0, curve max at PLR = 0.99 is 1.015\n   **   ~~~   ** ...Setting curve maximum to 1.0 and simulation continues.\n   ** Warning ** GetDXCoils: Coil:Cooling:DX:SingleSpeed=\"COIL COOLING DX SINGLE SPEED 4 50KBTU/HR 14.0SEER\", invalid\n   **   ~~~   ** ...Part Load Fraction Correlation Curve Name = DXCOOL-NECB2011-REF-COOLPLFFPLR 3 has out of range value.\n   **   ~~~   ** ...Curve maximum must be <= 1.0, curve max at PLR = 0.99 is 1.015\n   **   ~~~   ** ...Setting curve maximum to 1.0 and simulation continues.\n   ** Warning ** GetDXCoils: Coil:Cooling:DX:SingleSpeed=\"COIL COOLING DX SINGLE SPEED 3 50KBTU/HR 14.0SEER\", invalid\n   **   ~~~   ** ...Part Load Fraction Correlation Curve Name = DXCOOL-NECB2011-REF-COOLPLFFPLR 2 has out of range value.\n   **   ~~~   ** ...Curve maximum must be <= 1.0, curve max at PLR = 0.99 is 1.015\n   **   ~~~   ** ...Setting curve maximum to 1.0 and simulation continues.\n   ** Warning ** The Standard Ratings is calculated for Coil:Cooling:DX:SingleSpeed = COIL COOLING DX SINGLE SPEED 5 44KBTU/HR 14.0SEER but not at the AHRI test condition due to curve out of bound.\n   **   ~~~   **  Review the Standard Ratings calculations in the Engineering Reference for this coil type. Also, use Output:Diagnostics, DisplayExtraWarnings for further guidance.\n   ** Warning ** The Standard Ratings is calculated for Coil:Cooling:DX:SingleSpeed = COIL COOLING DX SINGLE SPEED 1 205KBTU/HR 9.7EER but not at the AHRI test condition due to curve out of bound.\n   **   ~~~   **  Review the Standard Ratings calculations in the Engineering Reference for this coil type. Also, use Output:Diagnostics, DisplayExtraWarnings for further guidance.\n   ** Warning ** The Standard Ratings is calculated for Coil:Cooling:DX:SingleSpeed = COIL COOLING DX SINGLE SPEED 2 8KBTU/HR 14.0SEER but not at the AHRI test condition due to curve out of bound.\n   **   ~~~   **  Review the Standard Ratings calculations in the Engineering Reference for this coil type. Also, use Output:Diagnostics, DisplayExtraWarnings for further guidance.\n   ** Warning ** The Standard Ratings is calculated for Coil:Cooling:DX:SingleSpeed = COIL COOLING DX SINGLE SPEED 4 50KBTU/HR 14.0SEER but not at the AHRI test condition due to curve out of bound.\n   **   ~~~   **  Review the Standard Ratings calculations in the Engineering Reference for this coil type. Also, use Output:Diagnostics, DisplayExtraWarnings for further guidance.\n   ** Warning ** The Standard Ratings is calculated for Coil:Cooling:DX:SingleSpeed = COIL COOLING DX SINGLE SPEED 3 50KBTU/HR 14.0SEER but not at the AHRI test condition due to curve out of bound.\n   **   ~~~   **  Review the Standard Ratings calculations in the Engineering Reference for this coil type. Also, use Output:Diagnostics, DisplayExtraWarnings for further guidance.\n   ** Warning ** Check input. Pump nominal power or motor efficiency is set to 0, for pump=SERVICE WATER LOOP PUMP\n   ** Warning ** Output:Meter: invalid Name=\"GAS:FACILITY\" - not found.\n   ** Warning ** Output:Meter: invalid Name=\"DISTRICTCOOLING:FACILITY\" - not found.\n   ** Warning ** Output:Meter: invalid Name=\"DISTRICTHEATING:FACILITY\" - not found.\n   ** Warning ** Output:Meter:MeterFileOnly: invalid Name=\"GAS:FACILITY\" - not found.\n   ** Warning ** Output:Meter:MeterFileOnly: invalid Name=\"GAS:FACILITY\" - not found.\n   ** Warning ** Output:Meter:MeterFileOnly requested for \"Electricity:Facility\" (TimeStep), already on \"Output:Meter\". Will report to both eplusout.eso and eplusout.mtr\n   ************* Testing Individual Branch Integrity\n   ************* All Branches passed integrity testing\n   ************* Testing Individual Supply Air Path Integrity\n   ************* All Supply Air Paths passed integrity testing\n   ************* Testing Individual Return Air Path Integrity\n   ************* All Return Air Paths passed integrity testing\n   ************* No node connection errors were found.\n   ************* Beginning Simulation\n   ** Warning ** GetInputEconomicsTariff: UtilityCost:Tariff=\"NONEGAS\" missing meter\n   **   ~~~   ** Meter referenced is not present due to a lack of equipment that uses that energy source/meter:\"GAS:FACILITY\".\n   ** Warning ** CalcDoe2DXCoil: Coil:Cooling:DX:SingleSpeed \"COIL COOLING DX SINGLE SPEED 4 50KBTU/HR 14.0SEER\" - Air-cooled condenser inlet dry-bulb temperature below 0 C. Outdoor dry-bulb temperature = -12.15\n   **   ~~~   **  ... Occurrence info = RUN PERIOD 1, 01/01 09:03 - 09:06\n   **   ~~~   ** ... Operation at low ambient temperatures may require special performance curves.\n   ** Warning ** CalcDoe2DXCoil: Coil:Cooling:DX:SingleSpeed \"COIL COOLING DX SINGLE SPEED 3 50KBTU/HR 14.0SEER\" - Air-cooled condenser inlet dry-bulb temperature below 0 C. Outdoor dry-bulb temperature = -12.15\n   **   ~~~   **  ... Occurrence info = RUN PERIOD 1, 01/01 09:03 - 09:06\n   **   ~~~   ** ... Operation at low ambient temperatures may require special performance curves.\n   ** Warning ** CalcDoe2DXCoil: Coil:Cooling:DX:SingleSpeed \"COIL COOLING DX SINGLE SPEED 2 8KBTU/HR 14.0SEER\" - Air-cooled condenser inlet dry-bulb temperature below 0 C. Outdoor dry-bulb temperature = -8.85\n   **   ~~~   **  ... Occurrence info = RUN PERIOD 1, 01/01 11:23 - 11:30\n   **   ~~~   ** ... Operation at low ambient temperatures may require special performance curves.\n   ** Warning ** CalcDoe2DXCoil: Coil:Cooling:DX:SingleSpeed \"COIL COOLING DX SINGLE SPEED 2 8KBTU/HR 14.0SEER\" - Full load outlet air dry-bulb temperature < 2C. This indicates the possibility of coil frost/freeze. Outlet temperature = -0.50 C.\n   **   ~~~   **  ...Occurrence info = RUN PERIOD 1, 01/01 11:23 - 11:30\n   **   ~~~   ** ... Possible reasons for low outlet air dry-bulb temperatures are: This DX coil\n   **   ~~~   **    1) may have a low inlet air dry-bulb temperature. Inlet air temperature = 12.203 C.\n   **   ~~~   **    2) may have a low air flow rate per watt of cooling capacity. Check inputs.\n   **   ~~~   **    3) is used as part of a HX assisted cooling coil which uses a high sensible effectiveness. Check inputs.\n   ** Warning ** CalcDoe2DXCoil: Coil:Cooling:DX:SingleSpeed \"COIL COOLING DX SINGLE SPEED 5 44KBTU/HR 14.0SEER\" - Air-cooled condenser inlet dry-bulb temperature below 0 C. Outdoor dry-bulb temperature = -14.50\n   **   ~~~   **  ... Occurrence info = RUN PERIOD 1, 01/02 07:05 - 07:08\n   **   ~~~   ** ... Operation at low ambient temperatures may require special performance curves.\n   ** Warning ** CalcDoe2DXCoil: Coil:Cooling:DX:SingleSpeed \"COIL COOLING DX SINGLE SPEED 5 44KBTU/HR 14.0SEER\" - Full load outlet air dry-bulb temperature < 2C. This indicates the possibility of coil frost/freeze. Outlet temperature = 1.88 C.\n   **   ~~~   **  ...Occurrence info = RUN PERIOD 1, 01/02 08:04 - 08:06\n   **   ~~~   ** ... Possible reasons for low outlet air dry-bulb temperatures are: This DX coil\n   **   ~~~   **    1) may have a low inlet air dry-bulb temperature. Inlet air temperature = 14.577 C.\n   **   ~~~   **    2) may have a low air flow rate per watt of cooling capacity. Check inputs.\n   **   ~~~   **    3) is used as part of a HX assisted cooling coil which uses a high sensible effectiveness. Check inputs.\n   ** Warning ** CalcDoe2DXCoil: Coil:Cooling:DX:SingleSpeed \"COIL COOLING DX SINGLE SPEED 4 50KBTU/HR 14.0SEER\" - Full load outlet air dry-bulb temperature < 2C. This indicates the possibility of coil frost/freeze. Outlet temperature = 1.62 C.\n   **   ~~~   **  ...Occurrence info = RUN PERIOD 1, 01/12 10:38 - 10:45\n   **   ~~~   ** ... Possible reasons for low outlet air dry-bulb temperatures are: This DX coil\n   **   ~~~   **    1) may have a low inlet air dry-bulb temperature. Inlet air temperature = 14.334 C.\n   **   ~~~   **    2) may have a low air flow rate per watt of cooling capacity. Check inputs.\n   **   ~~~   **    3) is used as part of a HX assisted cooling coil which uses a high sensible effectiveness. Check inputs.\n   ** Warning ** CalcDoe2DXCoil: Coil:Cooling:DX:SingleSpeed \"COIL COOLING DX SINGLE SPEED 3 50KBTU/HR 14.0SEER\" - Full load outlet air dry-bulb temperature < 2C. This indicates the possibility of coil frost/freeze. Outlet temperature = 1.63 C.\n   **   ~~~   **  ...Occurrence info = RUN PERIOD 1, 01/12 10:38 - 10:45\n   **   ~~~   ** ... Possible reasons for low outlet air dry-bulb temperatures are: This DX coil\n   **   ~~~   **    1) may have a low inlet air dry-bulb temperature. Inlet air temperature = 14.351 C.\n   **   ~~~   **    2) may have a low air flow rate per watt of cooling capacity. Check inputs.\n   **   ~~~   **    3) is used as part of a HX assisted cooling coil which uses a high sensible effectiveness. Check inputs.\n   ************* Simulation Error Summary *************\n   ************* There are 9 unused schedules in input.\n   ************* There are 9 unused week schedules in input.\n   ************* There are 20 unused day schedules in input.\n   ************* Use Output:Diagnostics,DisplayUnusedSchedules; to see them.\n   *************\n   ************* ===== Recurring Error Summary =====\n   ************* The following recurring error messages occurred.\n   *************\n   *************  ** Warning ** CalcDoe2DXCoil: Coil:Cooling:DX:SingleSpeed=\"COIL COOLING DX SINGLE SPEED 4 50KBTU/HR 14.0SEER\" - Low condenser dry-bulb temperature error continues...\n   *************  **   ~~~   **   This error occurred 1788 total times;\n   *************  **   ~~~   **   during Warmup 0 times;\n   *************  **   ~~~   **   during Sizing 0 times.\n   *************  **   ~~~   **   Max=-5.000000E-002 [C]  Min=-31.9 [C]\n   *************\n   *************  ** Warning ** CalcDoe2DXCoil: Coil:Cooling:DX:SingleSpeed=\"COIL COOLING DX SINGLE SPEED 3 50KBTU/HR 14.0SEER\" - Low condenser dry-bulb temperature error continues...\n   *************  **   ~~~   **   This error occurred 1790 total times;\n   *************  **   ~~~   **   during Warmup 0 times;\n   *************  **   ~~~   **   during Sizing 0 times.\n   *************  **   ~~~   **   Max=-5.000000E-002 [C]  Min=-31.9 [C]\n   *************\n   *************  ** Warning ** CalcDoe2DXCoil: Coil:Cooling:DX:SingleSpeed=\"COIL COOLING DX SINGLE SPEED 2 8KBTU/HR 14.0SEER\" - Low condenser dry-bulb temperature error continues...\n   *************  **   ~~~   **   This error occurred 599 total times;\n   *************  **   ~~~   **   during Warmup 0 times;\n   *************  **   ~~~   **   during Sizing 0 times.\n   *************  **   ~~~   **   Max=-5.000000E-002 [C]  Min=-13.05 [C]\n   *************\n   *************  ** Warning ** CalcDoe2DXCoil: Coil:Cooling:DX:SingleSpeed=\"COIL COOLING DX SINGLE SPEED 2 8KBTU/HR 14.0SEER\" - Full load outlet temperature indicates a possibility of frost/freeze error continues. Outlet air temperature statistics follow:\n   *************  **   ~~~   **   This error occurred 524 total times;\n   *************  **   ~~~   **   during Warmup 0 times;\n   *************  **   ~~~   **   during Sizing 0 times.\n   *************  **   ~~~   **   Max=1.990897  Min=-0.937334\n   *************\n   *************  ** Warning ** CalcDoe2DXCoil: Coil:Cooling:DX:SingleSpeed=\"COIL COOLING DX SINGLE SPEED 5 44KBTU/HR 14.0SEER\" - Low condenser dry-bulb temperature error continues...\n   *************  **   ~~~   **   This error occurred 226 total times;\n   *************  **   ~~~   **   during Warmup 0 times;\n   *************  **   ~~~   **   during Sizing 0 times.\n   *************  **   ~~~   **   Max=-0.275 [C]  Min=-31.9 [C]\n   *************\n   *************  ** Warning ** CalcDoe2DXCoil: Coil:Cooling:DX:SingleSpeed=\"COIL COOLING DX SINGLE SPEED 5 44KBTU/HR 14.0SEER\" - Full load outlet temperature indicates a possibility of frost/freeze error continues. Outlet air temperature statistics follow:\n   *************  **   ~~~   **   This error occurred 6 total times;\n   *************  **   ~~~   **   during Warmup 0 times;\n   *************  **   ~~~   **   during Sizing 0 times.\n   *************  **   ~~~   **   Max=1.921158  Min=1.344198\n   *************\n   *************  ** Warning ** CalcDoe2DXCoil: Coil:Cooling:DX:SingleSpeed=\"COIL COOLING DX SINGLE SPEED 4 50KBTU/HR 14.0SEER\" - Full load outlet temperature indicates a possibility of frost/freeze error continues. Outlet air temperature statistics follow:\n   *************  **   ~~~   **   This error occurred 80 total times;\n   *************  **   ~~~   **   during Warmup 0 times;\n   *************  **   ~~~   **   during Sizing 0 times.\n   *************  **   ~~~   **   Max=1.985696  Min=2.499769E-002\n   *************\n   *************  ** Warning ** CalcDoe2DXCoil: Coil:Cooling:DX:SingleSpeed=\"COIL COOLING DX SINGLE SPEED 3 50KBTU/HR 14.0SEER\" - Full load outlet temperature indicates a possibility of frost/freeze error continues. Outlet air temperature statistics follow:\n   *************  **   ~~~   **   This error occurred 83 total times;\n   *************  **   ~~~   **   during Warmup 0 times;\n   *************  **   ~~~   **   during Sizing 0 times.\n   *************  **   ~~~   **   Max=1.99759  Min=3.457908E-002\n   *************\n   *************\n   ************* ===== Final Error Summary =====\n   ************* The following error categories occurred.  Consider correcting or noting.\n   ************* Nominally Unused Constructions\n   ************* ..The nominally unused constructions warning is provided to alert you to potential conditions that can cause\n   ************* ..extra time during simulation. Each construction is calculated by the algorithm indicated in the HeatBalanceAlgorithm\n   ************* ..object. You may remove the constructions indicated (when you use the DisplayExtraWarnings option).\n   *************\n   ************* EnergyPlus Warmup Error Summary. During Warmup: 0 Warning; 0 Severe Errors.\n   ************* EnergyPlus Sizing Error Summary. During Sizing: 39 Warning; 24 Severe Errors.\n   ************* EnergyPlus Completed Successfully-- 5154 Warning; 24 Severe Errors; Elapsed Time=00hr 00min 40.80sec\n",
   "file_format_version" : "0.0.1",
   "file_paths" : [ "../weather", "../seeds", "../seed" ],
   "hash" : "D4D672B6",
   "measure_paths" : [ "../measures" ],
   "name" : "LHS Autogenerated 386",
   "osa_id" : "4fef0e0f-5396-4c55-a6e1-2cd6803db3ab",
   "osd_id" : "c4ade67a-dbe0-4ac1-b604-a80738c33147",
   "run_directory" : "./run",
   "seed_file" : "seed.osm",
   "started_at" : "20170710T184546Z",
   "steps" : [
      {
         "arguments" : {
            "__SKIP__" : false,
            "building_type" : "RetailStandalone",
            "climate_zone" : "NECB HDD Method",
            "epw_file" : "CAN_PQ_Sept-Iles.718110_CWEC.epw",
            "template" : "NECB 2011"
         },
         "measure_dir_name" : "create_prototype_building",
         "name" : "create_prototype_building",
         "result" : {
            "completed_at" : "20170710T184639Z",
            "measure_class_name" : "CreatePrototypeBuilding",
            "measure_display_name" : "Create Prototype Building",
            "measure_name" : "create_prototype_building",
            "measure_taxonomy" : "Whole Building.Space Types",
            "measure_type" : "ModelMeasure",
            "measure_uid" : "ae90fsd7-a651-467a-bc8d-29d310b0f937",
            "measure_version_id" : "c6ec5c18-5595-459f-a082-09a19c8c869c",
            "measure_version_modified" : "20170519T182315Z",
            "measure_xml_checksum" : "057E8D9D",
            "started_at" : "20170710T184548Z",
            "stderr" : "",
            "stdout" : "[OpenStudio.Measure] <0> OSArgumentVector is deprecated, use OpenStudio::Measure::OSArgumentVector instead.\n[openstudio.EpwFile] <0> Successive data points (1992-Jan-31 to 1975-Feb-01, ending on line 753) are greater than 1 day apart in EPW file '/usr/local/bundle/bundler/gems/openstudio-standards-f448df66933d/openstudio-standards/data/weather/CAN_PQ_Sept-Iles.718110_CWEC.epw'. Data will be treated as typical (TMY)\n[openstudio.setFileExtension] <0> Path p, '/usr/local/bundle/bundler/gems/openstudio-standards-f448df66933d/openstudio-standards/data/weather/CAN_PQ_Sept-Iles.718110_CWEC.ddy', has an unexpected file extension. Was expecting 'idf'.\n[openstudio.model.YearDescription] <1> 'UseWeatherFile' is not yet a supported option for YearDescription\n[openstudio.model.YearDescription] <1> 'UseWeatherFile' is not yet a supported option for YearDescription\n[openstudio.setFileExtension] <0> Path p, '/usr/local/bundle/bundler/gems/openstudio-standards-f448df66933d/openstudio-standards/data/weather/CAN_PQ_Sept-Iles.718110_CWEC.ddy', has an unexpected file extension. Was expecting 'idf'.\n[openstudio.model.YearDescription] <1> 'UseWeatherFile' is not yet a supported option for YearDescription\n[openstudio.model.YearDescription] <1> 'UseWeatherFile' is not yet a supported option for YearDescription\n[openstudio.EpwFile] <0> Successive data points (1992-Jan-31 to 1975-Feb-01, ending on line 753) are greater than 1 day apart in EPW file '/usr/local/bundle/bundler/gems/openstudio-standards-f448df66933d/openstudio-standards/data/weather/CAN_PQ_Sept-Iles.718110_CWEC.epw'. Data will be treated as typical (TMY)\n[openstudio.weather.Model] <0> Could not find ground temperatures; will use generic temperatures, which will skew results.\n[openstudio.setFileExtension] <0> Path p, '/usr/local/bundle/bundler/gems/openstudio-standards-f448df66933d/openstudio-standards/data/weather/CAN_PQ_Sept-Iles.718110_CWEC.ddy', has an unexpected file extension. Was expecting 'idf'.\n[openstudio.model.YearDescription] <1> 'UseWeatherFile' is not yet a supported option for YearDescription\n[openstudio.model.YearDescription] <1> 'UseWeatherFile' is not yet a supported option for YearDescription\n[openstudio.EpwFile] <0> Successive data points (1992-Jan-31 to 1975-Feb-01, ending on line 753) are greater than 1 day apart in EPW file '/usr/local/bundle/bundler/gems/openstudio-standards-f448df66933d/openstudio-standards/data/weather/CAN_PQ_Sept-Iles.718110_CWEC.epw'. Data will be treated as typical (TMY)\n[openstudio.setFileExtension] <0> Path p, '/usr/local/bundle/bundler/gems/openstudio-standards-f448df66933d/openstudio-standards/data/weather/CAN_PQ_Sept-Iles.718110_CWEC.ddy', has an unexpected file extension. Was expecting 'idf'.\n[openstudio.model.YearDescription] <1> 'UseWeatherFile' is not yet a supported option for YearDescription\n[openstudio.model.YearDescription] <1> 'UseWeatherFile' is not yet a supported option for YearDescription\n[openstudio.setFileExtension] <0> Path p, '/usr/local/bundle/bundler/gems/openstudio-standards-f448df66933d/openstudio-standards/data/weather/CAN_PQ_Sept-Iles.718110_CWEC.ddy', has an unexpected file extension. Was expecting 'idf'.\n[openstudio.model.YearDescription] <1> 'UseWeatherFile' is not yet a supported option for YearDescription\n[openstudio.model.YearDescription] <1> 'UseWeatherFile' is not yet a supported option for YearDescription\n[openstudio.EpwFile] <0> Successive data points (1992-Jan-31 to 1975-Feb-01, ending on line 753) are greater than 1 day apart in EPW file '/usr/local/bundle/bundler/gems/openstudio-standards-f448df66933d/openstudio-standards/data/weather/CAN_PQ_Sept-Iles.718110_CWEC.epw'. Data will be treated as typical (TMY)\n[openstudio.setFileExtension] <0> Path p, '/usr/local/bundle/bundler/gems/openstudio-standards-f448df66933d/openstudio-standards/data/weather/CAN_PQ_Sept-Iles.718110_CWEC.ddy', has an unexpected file extension. Was expecting 'idf'.\n[openstudio.model.YearDescription] <1> 'UseWeatherFile' is not yet a supported option for YearDescription\n[openstudio.model.YearDescription] <1> 'UseWeatherFile' is not yet a supported option for YearDescription\n[openstudio.setFileExtension] <0> Path p, '/usr/local/bundle/bundler/gems/openstudio-standards-f448df66933d/openstudio-standards/data/weather/CAN_PQ_Sept-Iles.718110_CWEC.ddy', has an unexpected file extension. Was expecting 'idf'.\n[openstudio.model.YearDescription] <1> 'UseWeatherFile' is not yet a supported option for YearDescription\n[openstudio.model.YearDescription] <1> 'UseWeatherFile' is not yet a supported option for YearDescription\n[utilities.idf.WorkspaceObject] <0> Object of type 'Schedule:Constant' and named 'Always Off Discrete', points to an object named OnOff 1 from field 1, but that object cannot be located.\n[utilities.idf.WorkspaceObject] <0> Object of type 'Schedule:Constant' and named 'Always On Continuous', points to an object named Fractional 1 from field 1, but that object cannot be located.\n[openstudio.model.Model] <0> The run completed but had the following severe errors: Problem in interior solar distribution calculation (CHKBKS)     Solar Distribution = FullInteriorExterior will not work in Zone=CORE_RETAIL ZN     because vertex 2 of back surface=CORE_RETAIL_WALL_EAST_1 is in front of receiving surface=CORE_RETAIL_ROOF     (Dot Product indicator=459.6689)     Check surface geometry; if OK, use Solar Distribution = FullExterior instead.\\nProblem in interior solar distribution calculation (CHKBKS)     Solar Distribution = FullInteriorExterior will not work in Zone=CORE_RETAIL ZN     because vertex 3 of back surface=CORE_RETAIL_WALL_EAST_1 is in front of receiving surface=CORE_RETAIL_ROOF     (Dot Product indicator=459.6689)     Check surface geometry; if OK, use Solar Distribution = FullExterior instead.\\nProblem in interior solar distribution calculation (CHKBKS)     Solar Distribution = FullInteriorExterior will not work in Zone=CORE_RETAIL ZN     because vertex 2 of back surface=CORE_RETAIL_WALL_EAST_2 is in front of receiving surface=CORE_RETAIL_ROOF     (Dot Product indicator=459.6689)     Check surface geometry; if OK, use Solar Distribution = FullExterior instead.\\nProblem in interior solar distribution calculation (CHKBKS)     Solar Distribution = FullInteriorExterior will not work in Zone=CORE_RETAIL ZN     because vertex 3 of back surface=CORE_RETAIL_WALL_EAST_2 is in front of receiving surface=CORE_RETAIL_ROOF     (Dot Product indicator=459.6689)     Check surface geometry; if OK, use Solar Distribution = FullExterior instead.\\nProblem in interior solar distribution calculation (CHKBKS)     Solar Distribution = FullInteriorExterior will not work in Zone=CORE_RETAIL ZN     because vertex 2 of back surface=CORE_RETAIL_WALL_NORTH is in front of receiving surface=CORE_RETAIL_ROOF     (Dot Product indicator=459.6689)     Check surface geometry; if OK, use Solar Distribution = FullExterior instead.\\nProblem in interior solar distribution calculation (CHKBKS)     Solar Distribution = FullInteriorExterior will not work in Zone=CORE_RETAIL ZN     because vertex 3 of back surface=CORE_RETAIL_WALL_NORTH is in front of receiving surface=CORE_RETAIL_ROOF     (Dot Product indicator=459.6689)     Check surface geometry; if OK, use Solar Distribution = FullExterior instead.\\nProblem in interior solar distribution calculation (CHKBKS)     Solar Distribution = FullInteriorExterior will not work in Zone=CORE_RETAIL ZN     because vertex 2 of back surface=CORE_RETAIL_WALL_SOUTH_1 is in front of receiving surface=CORE_RETAIL_ROOF     (Dot Product indicator=459.6689)     Check surface geometry; if OK, use Solar Distribution = FullExterior instead.\\nProblem in interior solar distribution calculation (CHKBKS)     Solar Distribution = FullInteriorExterior will not work in Zone=CORE_RETAIL ZN     because vertex 3 of back surface=CORE_RETAIL_WALL_SOUTH_1 is in front of receiving surface=CORE_RETAIL_ROOF     (Dot Product indicator=459.6689)     Check surface geometry; if OK, use Solar Distribution = FullExterior instead.\\nProblem in interior solar distribution calculation (CHKBKS)     Solar Distribution = FullInteriorExterior will not work in Zone=CORE_RETAIL ZN     because vertex 2 of back surface=CORE_RETAIL_WALL_SOUTH_2 is in front of receiving surface=CORE_RETAIL_ROOF     (Dot Product indicator=459.6689)     Check surface geometry; if OK, use Solar Distribution = FullExterior instead.\\nProblem in interior solar distribution calculation (CHKBKS)     Solar Distribution = FullInteriorExterior will not work in Zone=CORE_RETAIL ZN     because vertex 3 of back surface=CORE_RETAIL_WALL_SOUTH_2 is in front of receiving surface=CORE_RETAIL_ROOF     (Dot Product indicator=459.6689)     Check surface geometry; if OK, use Solar Distribution = FullExterior instead.\\nProblem in interior solar distribution calculation (CHKBKS)     Solar Distribution = FullInteriorExterior will not work in Zone=CORE_RETAIL ZN     because vertex 2 of back surface=CORE_RETAIL_WALL_SOUTH_3 is in front of receiving surface=CORE_RETAIL_ROOF     (Dot Product indicator=459.6689)     Check surface geometry; if OK, use Solar Distribution = FullExterior instead.\\nProblem in interior solar distribution calculation (CHKBKS)     Solar Distribution = FullInteriorExterior will not work in Zone=CORE_RETAIL ZN     because vertex 3 of back surface=CORE_RETAIL_WALL_SOUTH_3 is in front of receiving surface=CORE_RETAIL_ROOF     (Dot Product indicator=459.6689)     Check surface geometry; if OK, use Solar Distribution = FullExterior instead.\\nProblem in interior solar distribution calculation (CHKBKS)     Solar Distribution = FullInteriorExterior will not work in Zone=CORE_RETAIL ZN     because vertex 2 of back surface=CORE_RETAIL_WALL_WEST_1 is in front of receiving surface=CORE_RETAIL_ROOF     (Dot Product indicator=459.6689)     Check surface geometry; if OK, use Solar Distribution = FullExterior instead.\\nProblem in interior solar distribution calculation (CHKBKS)     Solar Distribution = FullInteriorExterior will not work in Zone=CORE_RETAIL ZN     because vertex 3 of back surface=CORE_RETAIL_WALL_WEST_1 is in front of receiving surface=CORE_RETAIL_ROOF     (Dot Product indicator=459.6689)     Check surface geometry; if OK, use Solar Distribution = FullExterior instead.\\nProblem in interior solar distribution calculation (CHKBKS)     Solar Distribution = FullInteriorExterior will not work in Zone=CORE_RETAIL ZN     because vertex 2 of back surface=CORE_RETAIL_WALL_WEST_2 is in front of receiving surface=CORE_RETAIL_ROOF     (Dot Product indicator=459.6689)     Check surface geometry; if OK, use Solar Distribution = FullExterior instead.\\nProblem in interior solar distribution calculation (CHKBKS)     Solar Distribution = FullInteriorExterior will not work in Zone=CORE_RETAIL ZN     because vertex 3 of back surface=CORE_RETAIL_WALL_WEST_2 is in front of receiving surface=CORE_RETAIL_ROOF     (Dot Product indicator=459.6689)     Check surface geometry; if OK, use Solar Distribution = FullExterior instead.\\nProblem in interior solar distribution calculation (CHKBKS)     Solar Distribution = FullInteriorExterior will not work in Zone=CORE_RETAIL ZN     because vertex 1 of back surface=CORE_RETAIL_FLOOR is in front of receiving surface=CORE_RETAIL_ROOF     (Dot Product indicator=459.6689)     Check surface geometry; if OK, use Solar Distribution = FullExterior instead.\\nProblem in interior solar distribution calculation (CHKBKS)     Solar Distribution = FullInteriorExterior will not work in Zone=CORE_RETAIL ZN     because vertex 2 of back surface=CORE_RETAIL_FLOOR is in front of receiving surface=CORE_RETAIL_ROOF     (Dot Product indicator=459.6689)     Check surface geometry; if OK, use Solar Distribution = FullExterior instead.\\nProblem in interior solar distribution calculation (CHKBKS)     Solar Distribution = FullInteriorExterior will not work in Zone=CORE_RETAIL ZN     because vertex 3 of back surface=CORE_RETAIL_FLOOR is in front of receiving surface=CORE_RETAIL_ROOF     (Dot Product indicator=459.6689)     Check surface geometry; if OK, use Solar Distribution = FullExterior instead.\\nProblem in interior solar distribution calculation (CHKBKS)     Solar Distribution = FullInteriorExterior will not work in Zone=CORE_RETAIL ZN     because vertex 4 of back surface=CORE_RETAIL_FLOOR is in front of receiving surface=CORE_RETAIL_ROOF     (Dot Product indicator=459.6689)     Check surface geometry; if OK, use Solar Distribution = FullExterior instead.\\nProblem in interior solar distribution calculation (CHKBKS)     Solar Distribution = FullInteriorExterior will not work in Zone=CORE_RETAIL ZN     because vertex 5 of back surface=CORE_RETAIL_FLOOR is in front of receiving surface=CORE_RETAIL_ROOF     (Dot Product indicator=459.6689)     Check surface geometry; if OK, use Solar Distribution = FullExterior instead.\\nProblem in interior solar distribution calculation (CHKBKS)     Solar Distribution = FullInteriorExterior will not work in Zone=CORE_RETAIL ZN     because vertex 6 of back surface=CORE_RETAIL_FLOOR is in front of receiving surface=CORE_RETAIL_ROOF     (Dot Product indicator=459.6689)     Check surface geometry; if OK, use Solar Distribution = FullExterior instead.\\nProblem in interior solar distribution calculation (CHKBKS)     Solar Distribution = FullInteriorExterior will not work in Zone=CORE_RETAIL ZN     because vertex 7 of back surface=CORE_RETAIL_FLOOR is in front of receiving surface=CORE_RETAIL_ROOF     (Dot Product indicator=459.6689)     Check surface geometry; if OK, use Solar Distribution = FullExterior instead.\\nProblem in interior solar distribution calculation (CHKBKS)     Solar Distribution = FullInteriorExterior will not work in Zone=CORE_RETAIL ZN     because vertex 8 of back surface=CORE_RETAIL_FLOOR is in front of receiving surface=CORE_RETAIL_ROOF     (Dot Product indicator=459.6689)     Check surface geometry; if OK, use Solar Distribution = FullExterior instead.\n[utilities.idf.WorkspaceObject] <0> Object of type 'Schedule:Constant' and named 'Always Off Discrete', points to an object named OnOff 1 from field 1, but that object cannot be located.\n[utilities.idf.WorkspaceObject] <0> Object of type 'Schedule:Constant' and named 'Always On Continuous', points to an object named Fractional 1 from field 1, but that object cannot be located.\n[openstudio.model.Model] <0> The run completed but had the following severe errors: Problem in interior solar distribution calculation (CHKBKS)     Solar Distribution = FullInteriorExterior will not work in Zone=SP-CORE_RETAIL SYS-3 FLR-1 SCH-C HPLCMT-EAST ZN     because vertex 2 of back surface=CORE_RETAIL_WALL_EAST_1 is in front of receiving surface=CORE_RETAIL_ROOF     (Dot Product indicator=459.6689)     Check surface geometry; if OK, use Solar Distribution = FullExterior instead.\\nProblem in interior solar distribution calculation (CHKBKS)     Solar Distribution = FullInteriorExterior will not work in Zone=SP-CORE_RETAIL SYS-3 FLR-1 SCH-C HPLCMT-EAST ZN     because vertex 3 of back surface=CORE_RETAIL_WALL_EAST_1 is in front of receiving surface=CORE_RETAIL_ROOF     (Dot Product indicator=459.6689)     Check surface geometry; if OK, use Solar Distribution = FullExterior instead.\\nProblem in interior solar distribution calculation (CHKBKS)     Solar Distribution = FullInteriorExterior will not work in Zone=SP-CORE_RETAIL SYS-3 FLR-1 SCH-C HPLCMT-EAST ZN     because vertex 2 of back surface=CORE_RETAIL_WALL_EAST_2 is in front of receiving surface=CORE_RETAIL_ROOF     (Dot Product indicator=459.6689)     Check surface geometry; if OK, use Solar Distribution = FullExterior instead.\\nProblem in interior solar distribution calculation (CHKBKS)     Solar Distribution = FullInteriorExterior will not work in Zone=SP-CORE_RETAIL SYS-3 FLR-1 SCH-C HPLCMT-EAST ZN     because vertex 3 of back surface=CORE_RETAIL_WALL_EAST_2 is in front of receiving surface=CORE_RETAIL_ROOF     (Dot Product indicator=459.6689)     Check surface geometry; if OK, use Solar Distribution = FullExterior instead.\\nProblem in interior solar distribution calculation (CHKBKS)     Solar Distribution = FullInteriorExterior will not work in Zone=SP-CORE_RETAIL SYS-3 FLR-1 SCH-C HPLCMT-EAST ZN     because vertex 2 of back surface=CORE_RETAIL_WALL_NORTH is in front of receiving surface=CORE_RETAIL_ROOF     (Dot Product indicator=459.6689)     Check surface geometry; if OK, use Solar Distribution = FullExterior instead.\\nProblem in interior solar distribution calculation (CHKBKS)     Solar Distribution = FullInteriorExterior will not work in Zone=SP-CORE_RETAIL SYS-3 FLR-1 SCH-C HPLCMT-EAST ZN     because vertex 3 of back surface=CORE_RETAIL_WALL_NORTH is in front of receiving surface=CORE_RETAIL_ROOF     (Dot Product indicator=459.6689)     Check surface geometry; if OK, use Solar Distribution = FullExterior instead.\\nProblem in interior solar distribution calculation (CHKBKS)     Solar Distribution = FullInteriorExterior will not work in Zone=SP-CORE_RETAIL SYS-3 FLR-1 SCH-C HPLCMT-EAST ZN     because vertex 2 of back surface=CORE_RETAIL_WALL_SOUTH_1 is in front of receiving surface=CORE_RETAIL_ROOF     (Dot Product indicator=459.6689)     Check surface geometry; if OK, use Solar Distribution = FullExterior instead.\\nProblem in interior solar distribution calculation (CHKBKS)     Solar Distribution = FullInteriorExterior will not work in Zone=SP-CORE_RETAIL SYS-3 FLR-1 SCH-C HPLCMT-EAST ZN     because vertex 3 of back surface=CORE_RETAIL_WALL_SOUTH_1 is in front of receiving surface=CORE_RETAIL_ROOF     (Dot Product indicator=459.6689)     Check surface geometry; if OK, use Solar Distribution = FullExterior instead.\\nProblem in interior solar distribution calculation (CHKBKS)     Solar Distribution = FullInteriorExterior will not work in Zone=SP-CORE_RETAIL SYS-3 FLR-1 SCH-C HPLCMT-EAST ZN     because vertex 2 of back surface=CORE_RETAIL_WALL_SOUTH_2 is in front of receiving surface=CORE_RETAIL_ROOF     (Dot Product indicator=459.6689)     Check surface geometry; if OK, use Solar Distribution = FullExterior instead.\\nProblem in interior solar distribution calculation (CHKBKS)     Solar Distribution = FullInteriorExterior will not work in Zone=SP-CORE_RETAIL SYS-3 FLR-1 SCH-C HPLCMT-EAST ZN     because vertex 3 of back surface=CORE_RETAIL_WALL_SOUTH_2 is in front of receiving surface=CORE_RETAIL_ROOF     (Dot Product indicator=459.6689)     Check surface geometry; if OK, use Solar Distribution = FullExterior instead.\\nProblem in interior solar distribution calculation (CHKBKS)     Solar Distribution = FullInteriorExterior will not work in Zone=SP-CORE_RETAIL SYS-3 FLR-1 SCH-C HPLCMT-EAST ZN     because vertex 2 of back surface=CORE_RETAIL_WALL_SOUTH_3 is in front of receiving surface=CORE_RETAIL_ROOF     (Dot Product indicator=459.6689)     Check surface geometry; if OK, use Solar Distribution = FullExterior instead.\\nProblem in interior solar distribution calculation (CHKBKS)     Solar Distribution = FullInteriorExterior will not work in Zone=SP-CORE_RETAIL SYS-3 FLR-1 SCH-C HPLCMT-EAST ZN     because vertex 3 of back surface=CORE_RETAIL_WALL_SOUTH_3 is in front of receiving surface=CORE_RETAIL_ROOF     (Dot Product indicator=459.6689)     Check surface geometry; if OK, use Solar Distribution = FullExterior instead.\\nProblem in interior solar distribution calculation (CHKBKS)     Solar Distribution = FullInteriorExterior will not work in Zone=SP-CORE_RETAIL SYS-3 FLR-1 SCH-C HPLCMT-EAST ZN     because vertex 2 of back surface=CORE_RETAIL_WALL_WEST_1 is in front of receiving surface=CORE_RETAIL_ROOF     (Dot Product indicator=459.6689)     Check surface geometry; if OK, use Solar Distribution = FullExterior instead.\\nProblem in interior solar distribution calculation (CHKBKS)     Solar Distribution = FullInteriorExterior will not work in Zone=SP-CORE_RETAIL SYS-3 FLR-1 SCH-C HPLCMT-EAST ZN     because vertex 3 of back surface=CORE_RETAIL_WALL_WEST_1 is in front of receiving surface=CORE_RETAIL_ROOF     (Dot Product indicator=459.6689)     Check surface geometry; if OK, use Solar Distribution = FullExterior instead.\\nProblem in interior solar distribution calculation (CHKBKS)     Solar Distribution = FullInteriorExterior will not work in Zone=SP-CORE_RETAIL SYS-3 FLR-1 SCH-C HPLCMT-EAST ZN     because vertex 2 of back surface=CORE_RETAIL_WALL_WEST_2 is in front of receiving surface=CORE_RETAIL_ROOF     (Dot Product indicator=459.6689)     Check surface geometry; if OK, use Solar Distribution = FullExterior instead.\\nProblem in interior solar distribution calculation (CHKBKS)     Solar Distribution = FullInteriorExterior will not work in Zone=SP-CORE_RETAIL SYS-3 FLR-1 SCH-C HPLCMT-EAST ZN     because vertex 3 of back surface=CORE_RETAIL_WALL_WEST_2 is in front of receiving surface=CORE_RETAIL_ROOF     (Dot Product indicator=459.6689)     Check surface geometry; if OK, use Solar Distribution = FullExterior instead.\\nProblem in interior solar distribution calculation (CHKBKS)     Solar Distribution = FullInteriorExterior will not work in Zone=SP-CORE_RETAIL SYS-3 FLR-1 SCH-C HPLCMT-EAST ZN     because vertex 1 of back surface=CORE_RETAIL_FLOOR is in front of receiving surface=CORE_RETAIL_ROOF     (Dot Product indicator=459.6689)     Check surface geometry; if OK, use Solar Distribution = FullExterior instead.\\nProblem in interior solar distribution calculation (CHKBKS)     Solar Distribution = FullInteriorExterior will not work in Zone=SP-CORE_RETAIL SYS-3 FLR-1 SCH-C HPLCMT-EAST ZN     because vertex 2 of back surface=CORE_RETAIL_FLOOR is in front of receiving surface=CORE_RETAIL_ROOF     (Dot Product indicator=459.6689)     Check surface geometry; if OK, use Solar Distribution = FullExterior instead.\\nProblem in interior solar distribution calculation (CHKBKS)     Solar Distribution = FullInteriorExterior will not work in Zone=SP-CORE_RETAIL SYS-3 FLR-1 SCH-C HPLCMT-EAST ZN     because vertex 3 of back surface=CORE_RETAIL_FLOOR is in front of receiving surface=CORE_RETAIL_ROOF     (Dot Product indicator=459.6689)     Check surface geometry; if OK, use Solar Distribution = FullExterior instead.\\nProblem in interior solar distribution calculation (CHKBKS)     Solar Distribution = FullInteriorExterior will not work in Zone=SP-CORE_RETAIL SYS-3 FLR-1 SCH-C HPLCMT-EAST ZN     because vertex 4 of back surface=CORE_RETAIL_FLOOR is in front of receiving surface=CORE_RETAIL_ROOF     (Dot Product indicator=459.6689)     Check surface geometry; if OK, use Solar Distribution = FullExterior instead.\\nProblem in interior solar distribution calculation (CHKBKS)     Solar Distribution = FullInteriorExterior will not work in Zone=SP-CORE_RETAIL SYS-3 FLR-1 SCH-C HPLCMT-EAST ZN     because vertex 5 of back surface=CORE_RETAIL_FLOOR is in front of receiving surface=CORE_RETAIL_ROOF     (Dot Product indicator=459.6689)     Check surface geometry; if OK, use Solar Distribution = FullExterior instead.\\nProblem in interior solar distribution calculation (CHKBKS)     Solar Distribution = FullInteriorExterior will not work in Zone=SP-CORE_RETAIL SYS-3 FLR-1 SCH-C HPLCMT-EAST ZN     because vertex 6 of back surface=CORE_RETAIL_FLOOR is in front of receiving surface=CORE_RETAIL_ROOF     (Dot Product indicator=459.6689)     Check surface geometry; if OK, use Solar Distribution = FullExterior instead.\\nProblem in interior solar distribution calculation (CHKBKS)     Solar Distribution = FullInteriorExterior will not work in Zone=SP-CORE_RETAIL SYS-3 FLR-1 SCH-C HPLCMT-EAST ZN     because vertex 7 of back surface=CORE_RETAIL_FLOOR is in front of receiving surface=CORE_RETAIL_ROOF     (Dot Product indicator=459.6689)     Check surface geometry; if OK, use Solar Distribution = FullExterior instead.\\nProblem in interior solar distribution calculation (CHKBKS)     Solar Distribution = FullInteriorExterior will not work in Zone=SP-CORE_RETAIL SYS-3 FLR-1 SCH-C HPLCMT-EAST ZN     because vertex 8 of back surface=CORE_RETAIL_FLOOR is in front of receiving surface=CORE_RETAIL_ROOF     (Dot Product indicator=459.6689)     Check surface geometry; if OK, use Solar Distribution = FullExterior instead.\n[openstudio.standards.Fan] <0> For Fan Constant Volume 1, there is no greater nominal HP.  Use the efficiency of the largest motor category.\n[openstudio.standards.Fan] <0> For Fan Constant Volume 2, there is no greater nominal HP.  Use the efficiency of the largest motor category.\n[openstudio.standards.Fan] <0> For Fan Constant Volume 3, there is no greater nominal HP.  Use the efficiency of the largest motor category.\n[openstudio.standards.Fan] <0> For Fan Constant Volume 4, there is no greater nominal HP.  Use the efficiency of the largest motor category.\n[openstudio.standards.Fan] <0> For Fan Constant Volume 5, there is no greater nominal HP.  Use the efficiency of the largest motor category.\n[openstudio.EpwFile] <0> Successive data points (1992-Jan-31 to 1975-Feb-01, ending on line 753) are greater than 1 day apart in EPW file '/usr/local/bundle/bundler/gems/openstudio-standards-f448df66933d/openstudio-standards/data/weather/CAN_PQ_Sept-Iles.718110_CWEC.epw'. Data will be treated as typical (TMY)\n[openstudio.setFileExtension] <0> Path p, '/usr/local/bundle/bundler/gems/openstudio-standards-f448df66933d/openstudio-standards/data/weather/CAN_PQ_Sept-Iles.718110_CWEC.ddy', has an unexpected file extension. Was expecting 'idf'.\n[openstudio.model.YearDescription] <1> 'UseWeatherFile' is not yet a supported option for YearDescription\n[openstudio.model.YearDescription] <1> 'UseWeatherFile' is not yet a supported option for YearDescription\n[openstudio.setFileExtension] <0> Path p, '/usr/local/bundle/bundler/gems/openstudio-standards-f448df66933d/openstudio-standards/data/weather/CAN_PQ_Sept-Iles.718110_CWEC.ddy', has an unexpected file extension. Was expecting 'idf'.\n[openstudio.model.YearDescription] <1> 'UseWeatherFile' is not yet a supported option for YearDescription\n[openstudio.model.YearDescription] <1> 'UseWeatherFile' is not yet a supported option for YearDescription\n[openstudio.EpwFile] <0> Successive data points (1992-Jan-31 to 1975-Feb-01, ending on line 753) are greater than 1 day apart in EPW file '/usr/local/bundle/bundler/gems/openstudio-standards-f448df66933d/openstudio-standards/data/weather/CAN_PQ_Sept-Iles.718110_CWEC.epw'. Data will be treated as typical (TMY)\n[openstudio.setFileExtension] <0> Path p, '/usr/local/bundle/bundler/gems/openstudio-standards-f448df66933d/openstudio-standards/data/weather/CAN_PQ_Sept-Iles.718110_CWEC.ddy', has an unexpected file extension. Was expecting 'idf'.\n[openstudio.model.YearDescription] <1> 'UseWeatherFile' is not yet a supported option for YearDescription\n[openstudio.model.YearDescription] <1> 'UseWeatherFile' is not yet a supported option for YearDescription\n[openstudio.setFileExtension] <0> Path p, '/usr/local/bundle/bundler/gems/openstudio-standards-f448df66933d/openstudio-standards/data/weather/CAN_PQ_Sept-Iles.718110_CWEC.ddy', has an unexpected file extension. Was expecting 'idf'.\n[openstudio.model.YearDescription] <1> 'UseWeatherFile' is not yet a supported option for YearDescription\n[openstudio.model.YearDescription] <1> 'UseWeatherFile' is not yet a supported option for YearDescription\n[openstudio.EpwFile] <0> Successive data points (1992-Jan-31 to 1975-Feb-01, ending on line 753) are greater than 1 day apart in EPW file '/usr/local/bundle/bundler/gems/openstudio-standards-f448df66933d/openstudio-standards/data/weather/CAN_PQ_Sept-Iles.718110_CWEC.epw'. Data will be treated as typical (TMY)\n[openstudio.setFileExtension] <0> Path p, '/usr/local/bundle/bundler/gems/openstudio-standards-f448df66933d/openstudio-standards/data/weather/CAN_PQ_Sept-Iles.718110_CWEC.ddy', has an unexpected file extension. Was expecting 'idf'.\n[openstudio.model.YearDescription] <1> 'UseWeatherFile' is not yet a supported option for YearDescription\n[openstudio.model.YearDescription] <1> 'UseWeatherFile' is not yet a supported option for YearDescription\n[openstudio.setFileExtension] <0> Path p, '/usr/local/bundle/bundler/gems/openstudio-standards-f448df66933d/openstudio-standards/data/weather/CAN_PQ_Sept-Iles.718110_CWEC.ddy', has an unexpected file extension. Was expecting 'idf'.\n[openstudio.model.YearDescription] <1> 'UseWeatherFile' is not yet a supported option for YearDescription\n[openstudio.model.YearDescription] <1> 'UseWeatherFile' is not yet a supported option for YearDescription\n[openstudio.EpwFile] <0> Successive data points (1992-Jan-31 to 1975-Feb-01, ending on line 753) are greater than 1 day apart in EPW file '/usr/local/bundle/bundler/gems/openstudio-standards-f448df66933d/openstudio-standards/data/weather/CAN_PQ_Sept-Iles.718110_CWEC.epw'. Data will be treated as typical (TMY)\n[openstudio.setFileExtension] <0> Path p, '/usr/local/bundle/bundler/gems/openstudio-standards-f448df66933d/openstudio-standards/data/weather/CAN_PQ_Sept-Iles.718110_CWEC.ddy', has an unexpected file extension. Was expecting 'idf'.\n[openstudio.model.YearDescription] <1> 'UseWeatherFile' is not yet a supported option for YearDescription\n[openstudio.model.YearDescription] <1> 'UseWeatherFile' is not yet a supported option for YearDescription\n[openstudio.setFileExtension] <0> Path p, '/usr/local/bundle/bundler/gems/openstudio-standards-f448df66933d/openstudio-standards/data/weather/CAN_PQ_Sept-Iles.718110_CWEC.ddy', has an unexpected file extension. Was expecting 'idf'.\n[openstudio.model.YearDescription] <1> 'UseWeatherFile' is not yet a supported option for YearDescription\n[openstudio.model.YearDescription] <1> 'UseWeatherFile' is not yet a supported option for YearDescription\n[openstudio.EpwFile] <0> Successive data points (1992-Jan-31 to 1975-Feb-01, ending on line 753) are greater than 1 day apart in EPW file '/usr/local/bundle/bundler/gems/openstudio-standards-f448df66933d/openstudio-standards/data/weather/CAN_PQ_Sept-Iles.718110_CWEC.epw'. Data will be treated as typical (TMY)\n[openstudio.setFileExtension] <0> Path p, '/usr/local/bundle/bundler/gems/openstudio-standards-f448df66933d/openstudio-standards/data/weather/CAN_PQ_Sept-Iles.718110_CWEC.ddy', has an unexpected file extension. Was expecting 'idf'.\n[openstudio.model.YearDescription] <1> 'UseWeatherFile' is not yet a supported option for YearDescription\n[openstudio.model.YearDescription] <1> 'UseWeatherFile' is not yet a supported option for YearDescription\n[openstudio.setFileExtension] <0> Path p, '/usr/local/bundle/bundler/gems/openstudio-standards-f448df66933d/openstudio-standards/data/weather/CAN_PQ_Sept-Iles.718110_CWEC.ddy', has an unexpected file extension. Was expecting 'idf'.\n[openstudio.model.YearDescription] <1> 'UseWeatherFile' is not yet a supported option for YearDescription\n[openstudio.model.YearDescription] <1> 'UseWeatherFile' is not yet a supported option for YearDescription\n[openstudio.standards.Fan] <0> For Fan Constant Volume 1, there is no greater nominal HP.  Use the efficiency of the largest motor category.\n[openstudio.standards.Fan] <0> For Fan Constant Volume 2, there is no greater nominal HP.  Use the efficiency of the largest motor category.\n[openstudio.standards.Fan] <0> For Fan Constant Volume 3, there is no greater nominal HP.  Use the efficiency of the largest motor category.\n[openstudio.standards.Fan] <0> For Fan Constant Volume 4, there is no greater nominal HP.  Use the efficiency of the largest motor category.\n[openstudio.standards.Fan] <0> For Fan Constant Volume 5, there is no greater nominal HP.  Use the efficiency of the largest motor category.\n",
            "step_errors" : [],
            "step_files" : [],
            "step_info" : [
               "Started adding geometry",
               "Finished adding geometry",
               "Started adding weather file for climate zone: NECB HDD Method.",
               "Template =",
               "Setting Back_Space to Space Function.Storage area",
               "Setting Core_Retail to Space Function.Retail - sales",
               "Setting Front_Retail to Space Function.Retail - sales",
               "Setting Point_Of_Sale to Space Function.Retail - sales",
               "Setting Front_Entry to Space Function.Lobby - elevator",
               "Started applying space types (loads)",
               "Space Function Lobby - elevator had no people, one has been created.",
               "Space Function Lobby - elevator set occupancy to 9.29 people/1000 ft^2.",
               "Space Function Lobby - elevator had no lights, one has been created.",
               "Space Function Lobby - elevator set LPD to 0.641025641 W/ft^2.",
               "Space Function Lobby - elevator had no electric equipment, one has been created.",
               "Space Function Lobby - elevator set electric EPD to 0.092902267 W/ft^2.",
               "Space Function Lobby - elevator had no ventilation specification, one has been created.",
               "Space Function Lobby - elevator set ventilation per area to 0.81 cfm/ft^2.",
               "Space Function Lobby - elevator had no infiltration objects, one has been created.",
               "Space Function Lobby - elevator set infiltration to 0.0 per ft^2 exterior surface area.",
               "Space Function Lobby - elevator set occupancy schedule to NECB-C-Occupancy.",
               "Space Function Lobby - elevator set occupant activity schedule to NECB-Activity.",
               "Space Function Lobby - elevator set lighting schedule to NECB-C-Lighting.",
               "Space Function Lobby - elevator set electric equipment schedule to NECB-C-Electric-Equipment.",
               "Space Function Lobby - elevator set infiltration schedule to Always On.",
               "Space Function Lobby - elevator set heating setpoint schedule to NECB-C-Thermostat Setpoint-Heating.",
               "Space Function Lobby - elevator set cooling setpoint schedule to NECB-C-Thermostat Setpoint-Cooling.",
               "Space Function Retail - sales had no people, one has been created.",
               "Space Function Retail - sales set occupancy to 3.1 people/1000 ft^2.",
               "Space Function Retail - sales had no lights, one has been created.",
               "Space Function Retail - sales set LPD to 1.681531029 W/ft^2.",
               "Space Function Retail - sales had no electric equipment, one has been created.",
               "Space Function Retail - sales set electric EPD to 0.232255667 W/ft^2.",
               "Space Function Retail - sales had no ventilation specification, one has been created.",
               "Space Function Retail - sales set ventilation per area to 0.233 cfm/ft^2.",
               "Space Function Retail - sales had no infiltration objects, one has been created.",
               "Space Function Retail - sales set infiltration to 0.0 per ft^2 exterior surface area.",
               "Space Function Retail - sales set occupancy schedule to NECB-C-Occupancy.",
               "Space Function Retail - sales set occupant activity schedule to NECB-Activity.",
               "Space Function Retail - sales set lighting schedule to NECB-C-Lighting.",
               "Space Function Retail - sales set electric equipment schedule to NECB-C-Electric-Equipment.",
               "Space Function Retail - sales set infiltration schedule to Always On.",
               "Space Function Retail - sales set heating setpoint schedule to NECB-C-Thermostat Setpoint-Heating.",
               "Space Function Retail - sales set cooling setpoint schedule to NECB-C-Thermostat Setpoint-Cooling.",
               "Space Function Storage area had no people, one has been created.",
               "Space Function Storage area set occupancy to 0.93 people/1000 ft^2.",
               "Space Function Storage area had no lights, one has been created.",
               "Space Function Storage area set LPD to 0.631735414 W/ft^2.",
               "Space Function Storage area had no electric equipment, one has been created.",
               "Space Function Storage area set electric EPD to 0.092902267 W/ft^2.",
               "Space Function Storage area had no ventilation specification, one has been created.",
               "Space Function Storage area set ventilation per area to 0.07 cfm/ft^2.",
               "Space Function Storage area had no infiltration objects, one has been created.",
               "Space Function Storage area set infiltration to 0.0 per ft^2 exterior surface area.",
               "Space Function Storage area set occupancy schedule to NECB-E-Occupancy.",
               "Space Function Storage area set occupant activity schedule to NECB-Activity.",
               "Space Function Storage area set lighting schedule to NECB-E-Lighting.",
               "Space Function Storage area set electric equipment schedule to NECB-E-Electric-Equipment.",
               "Space Function Storage area set infiltration schedule to Always On.",
               "Space Function Storage area set heating setpoint schedule to NECB-E-Thermostat Setpoint-Heating.",
               "Space Function Storage area set cooling setpoint schedule to NECB-E-Thermostat Setpoint-Cooling.",
               "Finished applying space types (loads)",
               "Started applying constructions",
               "Adding construction set: NECB 2011-NECB HDD Method-Retail--is_residentialNo",
               "Adding construction Typical Insulated Exterior Mass Floor R-15.63.",
               "Adding construction Typical Insulated Exterior Mass Wall R-12.5.",
               "Adding construction Typical Insulated Metal Building Roof R-20.41.",
               "Adding construction Typical Interior Floor.",
               "Adding construction Typical Interior Wall.",
               "Adding construction Typical Interior Ceiling.",
               "Adding construction Typical Insulated Carpeted 6in Slab Floor.",
               "Adding construction U 0.55 SHGC 0.31 Dbl Ref-D Tint 6mm/6mm Air.",
               "Adding construction Typical Insulated Metal Door R-1.43.",
               "Adding construction U 0.35 SHGC 0.35 Dbl LoE (e2-.1) Tint 6mm/13mm Air.",
               "Adding construction Typical Overhead Door R-2.0.",
               "Adding construction U 0.48 SHGC 0.40 Dbl Ref-D Clr 6mm/13mm.",
               "Adding construction Typical Interior Window.",
               "Adding construction Typical Interior Door.",
               "Adding construction Typical Interior Partition.",
               "Finished applying constructions",
               "WWR NonRes = 0%; window = 0 ft2, wall = 0 ft2.",
               "WWR Res = 0%; window = 0 ft2, wall = 0 ft2.",
               "WWR Semiheated = 0%; window = 0 ft2, wall = 0 ft2.",
               "The skylight to roof ratios (SRRs) are: NonRes: 1%, Res: 0%.",
               "Started creating thermal zones",
               "Finished creating thermal zones",
               "Running simulation /mnt/openstudio/analysis_4fef0e0f-5396-4c55-a6e1-2cd6803db3ab/data_point_c4ade67a-dbe0-4ac1-b604-a80738c33147/run/000_create_prototype_building/output/RetailStandalone-NECB 2011-NECB HDD Method-CAN_PQ_Sept-Iles.718110_CWEC.epw/SR0.",
               "Finished run.",
               "Started Adding HVAC",
               "Finished adding HVAC",
               "Started Adding Service Water Heating",
               "Adding service water loop.",
               "Adding water heater.",
               "Template =",
               "Finished adding Service Water Heating",
               "Set sizing factors to 1.3 for heating and 1.3 for cooling.",
               "Running simulation /mnt/openstudio/analysis_4fef0e0f-5396-4c55-a6e1-2cd6803db3ab/data_point_c4ade67a-dbe0-4ac1-b604-a80738c33147/run/000_create_prototype_building/output/RetailStandalone-NECB 2011-NECB HDD Method-CAN_PQ_Sept-Iles.718110_CWEC.epw/SR1.",
               "Finished run.",
               "Started applying multizone vav OA sizing.",
               "Finished applying multizone vav OA sizing.",
               "Started applying prototype HVAC assumptions.",
               "For Fan Constant Volume 1: allowed_hp = 5.25HP; motor eff = 61.5%; total fan eff = 40% based on 7674 cfm.",
               "For Fan Constant Volume 2: allowed_hp = 1.01HP; motor eff = 61.5%; total fan eff = 40% based on 307 cfm.",
               "For Fan Constant Volume 3: allowed_hp = 1.28HP; motor eff = 61.5%; total fan eff = 40% based on 1866 cfm.",
               "For Fan Constant Volume 4: allowed_hp = 1.28HP; motor eff = 61.5%; total fan eff = 40% based on 1872 cfm.",
               "For Fan Constant Volume 5: allowed_hp = 1.14HP; motor eff = 61.5%; total fan eff = 40% based on 1667 cfm.",
               "Sp-Front_Entry Sys-3 Flr-1 Sch-C HPlcmt-south ZN NECB System 3 PSZ does not require an economizer because the total cooling capacity of 8196 Btu/hr is less than the minimum capacity of 68243 Btu/hr.",
               "Sp-Point_Of_Sale Sys-3 Flr-1 Sch-C HPlcmt-south ZN NECB System 3 PSZ does not require an economizer because the total cooling capacity of 49753 Btu/hr is less than the minimum capacity of 68243 Btu/hr.",
               "Sp-Front_Retail Sys-3 Flr-1 Sch-C HPlcmt-south ZN NECB System 3 PSZ does not require an economizer because the total cooling capacity of 49904 Btu/hr is less than the minimum capacity of 68243 Btu/hr.",
               "Sp-Core_Retail Sys-3 Flr-1 Sch-C HPlcmt-east ZN NECB System 3 PSZ requires an economizer because the total cooling capacity of 204557 Btu/hr exceeds the minimum capacity of 68243 Btu/hr.",
               "Sp-Back_Space Sys-4 Flr-1 Sch-E HPlcmt-north ZN NECB System 4 PSZ does not require an economizer because the total cooling capacity of 44438 Btu/hr is less than the minimum capacity of 68243 Btu/hr.",
               "Finished applying prototype HVAC assumptions.",
               "Started applying HVAC efficiency standards.",
               "For Sp-Back_Space Sys-4 Flr-1 Sch-E HPlcmt-north ZN NECB System 4 PSZ, ERV not required based on 0% OA flow, design supply air flow of 1667cfm, and climate zone NECB HDD Method.",
               "For Sp-Back_Space Sys-4 Flr-1 Sch-E HPlcmt-north ZN NECB System 4 PSZ, ERV not required based on exhaust heat content.",
               "For NECB 2011 NECB HDD Method:  Sp-Back_Space Sys-4 Flr-1 Sch-E HPlcmt-north ZN NECB System 4 PSZ: DCV is not required for any system.",
               "For Sp-Back_Space Sys-4 Flr-1 Sch-E HPlcmt-north ZN NECB System 4 PSZ: Annual occupied hours = 3068 hr/yr, assuming a 0.15 occupancy threshold.  This schedule will be used as the HVAC operation schedule.",
               "For Sp-Back_Space Sys-4 Flr-1 Sch-E HPlcmt-north ZN NECB System 4 PSZ: Setting motorized OA damper schedule to Sp-Back_Space Sys-4 Flr-1 Sch-E HPlcmt-north ZN NECB System 4 PSZ Occ Sch.",
               "For Sp-Core_Retail Sys-3 Flr-1 Sch-C HPlcmt-east ZN NECB System 3 PSZ, ERV not required based on 0% OA flow, design supply air flow of 7674cfm, and climate zone NECB HDD Method.",
               "For Sp-Core_Retail Sys-3 Flr-1 Sch-C HPlcmt-east ZN NECB System 3 PSZ, ERV not required based on exhaust heat content.",
               "For NECB 2011 NECB HDD Method:  Sp-Core_Retail Sys-3 Flr-1 Sch-C HPlcmt-east ZN NECB System 3 PSZ: DCV is not required for any system.",
               "For Sp-Core_Retail Sys-3 Flr-1 Sch-C HPlcmt-east ZN NECB System 3 PSZ: Annual occupied hours = 4168 hr/yr, assuming a 0.15 occupancy threshold.  This schedule will be used as the HVAC operation schedule.",
               "For Sp-Core_Retail Sys-3 Flr-1 Sch-C HPlcmt-east ZN NECB System 3 PSZ: Because the system has an economizer, it requires a motorized OA damper.",
               "For Sp-Core_Retail Sys-3 Flr-1 Sch-C HPlcmt-east ZN NECB System 3 PSZ: Setting motorized OA damper schedule to Sp-Core_Retail Sys-3 Flr-1 Sch-C HPlcmt-east ZN NECB System 3 PSZ Occ Sch.",
               "For Sp-Front_Entry Sys-3 Flr-1 Sch-C HPlcmt-south ZN NECB System 3 PSZ, ERV not required based on 0% OA flow, design supply air flow of 307cfm, and climate zone NECB HDD Method.",
               "For Sp-Front_Entry Sys-3 Flr-1 Sch-C HPlcmt-south ZN NECB System 3 PSZ, ERV not required based on exhaust heat content.",
[...]
xCqoj1USXuomvZQRe2hqtpDlbWHqmsPVdgeqrJ9VGX7sLUaVdk+qrJ9q8quno62IFU/HM1BRrxC9aPRHGTEeV8/GM1BRpzz9WPRHGTE+e4QiuaiA6pjeRtzSERz0QGVsryHOcShueiAqlnewByy0FzWQVA9y7uXQxCaiw6onuWtq34K2oKMQwiai454eRwi0Fx0xOnuEIDmoiNOd4f4Mxcdcbq7hJ85CaEqWt7BXJLPnIRQRS1vYi6xZ05CqLqW9zGXzDOnlRFV2fJW5hJ45iSEqmx5N2PaGdPOmHb2iJBpZ+Zg2hnTzph2VnIw7YxpZ1bvimlnC/4Wr2fa2cODaWf3xwr+uOqJhQIQhzjEIQ5xiEMc4hCHOMQhzsbjPLGsANKQhjSkIQ1pSEMa0pCGNKTZHJq/TUYBcYhDHOIQhzjEIQ5xiEMc4tT3Y9rZ7GDa2TztrLcZaWfdDUg7664x7azdBcWdOQh1UEJ7KKEuSqiHEtpHCR2ghA5RQn942t5FCVbbHqy4PVh1e7Dy9mD17cEK3INVuAcrcQ9W4z6sxn3c+g2rcR9W475djdukoD3UcolBq68jXyWXILT6OvIq4BKFVl9HXgFcwtDq68iz3ykOzUEIVdEl25tTIpqDEKqoS/Y2p1A0ByFUXZdsbE65aA4rI6qyS3Y1p2g0ByFUZZdsaS7paA91nOLRHITkS+QUkOYgJE9+p4g0ByF58juFpDkIyZPfLSbNRQlW2yU7m1tSmosSrLxLNje3sDQXJViFl+xvbnlpLmslrMZLtji3yDQXJViNl+xyTE1jahpT0x4RMjXNHExNY2oaU9NKDqamMTXN6l0xNW3B3+L1TE17eDA17f5YwR9pPbFwAeIQhzjEIQ5xiEMc4hCHOMTZeJwnljlAGtKQhjSkIQ1pSEMa0pCGNJtD87fJOiAOcYhDHOIQhzjEIQ5xiEOc+n5MTZsdTE2bp6btb0ZqWm8DUtN6a0tN6xXPhNZNuEEJdVBCeyihLkqohxLaRwkdoIQOUUILD9+7KcFq24MVtwerbg9W3h6svj1YgXuwCvdgJe7BatyH1biPW79hNe7Daty3q/HqqWmLWvVT01x05KtUPzXNRUdeBeqnprnoyCtA/dQ0Fx159jukpjkJoSq6ZHtzSE1zEkIVdcne5pCa5iSEquuSjc0hNc1pZURVdsmu5pCa5iSEquySLa1+atqijkNqmpOQfIkcUtOchOTJ75Ca5iQkT36H1DQnIXnyu6SmuSnBartkZ3NJTXNTgpV3yebmkprmpgSr8JL9zSU1zW2thNV4yRbnkprmpgSr8ZJdjqlpTE1jatojQqammYOpaUxNY2paycHUNKamWb0rpqYt+Fu8nqlpDw+mpt0fK/gjrScWLkAc4hCHOMQhDnGIQxziEIc4G4/zxDIHSEMa0pCGNKQhDWlIQxrSkGZzaP42WQfEIQ5xiEMc4hCHOMQhDnGIU9+PqWmzg6lp89S0g81ITdvfgNS0/bWlprVbPiQ0zUWnA9LZA+l0QTo9kM4+SOcApHMI0ll45t5JCFXRHqqkPVRNe6ii9lBV7aHK2kPVtYcqbA9V2T6qsn3YWo2qbB9V2b5VZVdPR1uQqh+O5iAjXqH60WgOMuK8rx+M5iAjzvn6sWgOMuJ8dwhFc9EB1bG8jTkkornogEpZ3sMc4tBcdEDVLG9gDlloLusgqJ7l3cshCM1FB1TP8tZVPwVtQcYhBM1FR7w8DhFoLjridHcIQHPREae7Q/yZi4443V3Cz5yEUBUt72AuyWdOQqiiljcxl9gzJyFUXcv7mEvmmdPKiKpseStzCTxzEkJVtrybMe2MaWdMO3tEyLQzczDtjGlnTDsrOZh2xrQzq3fFtLMFf4vXM+3s4cG0s/tjBX9c9cRCAYhDHOIQhzjEIQ5xiEMc4hBn43GeWFYAaUhDGtKQhjSkIQ1pSEMa0mwOzd8mo4A4xCEOcYhDHOIQhzjEIQ5x6vsx7Wx2MO1snnZ2uBlpZwcbkHZ2sLa0M2+v3Wo/OLw9SPgZULazGtm91ch2VyPbW43s/mpkD1Yje7ga2YVn/ZG6K5pn3oommreimeataKp5K5pr3oomm7ei2eataLp5K5pv/ormm7+qfW1F881f0XzzXeZb9VS5MuX6IXM41apXt34EHU616kpWP6AOp1p1FasfX4dTrbqCOYTbAWVXM7sqtwsOSXhA2dVMsMq9gkNsHlB2NXOscqPgkLEH3BVWM8sqdwkOgXxA2dXMssotQv30vjJVhzA/oGzVS+sQ9QeUrbqAOQQBAmWrLmAOMYFA2aoLmEuIIFJ3RfOscqfgkjiI1F3RVKvcLLjEEyJ1VzTbKvcLLlmGyH1iRfOtcsvgEnyI1F3RfKvcNTAlkSmJTEl8RMiURHMwJZEpiUxJLDmYksiURKt3xZTEBX+L1zMl8eHBlMT7YwV/lPnEwkSIQxziEIc4xCEOcYhDHOIQZ+NxnljGCGlIQxrSkIY0pCENaUhDGtJsDs3fJtuEOMQhDnGIQxziEIc4xCEOcer7/Qkpie/01VgnQTZJtGq+2mJo4tMKTdTJddjX6j+Bqbwf43iszA0zf+e81361GQGKhxsQoHi4vgBF8+91k5pAOh2Qzh5IpwvS6YF09kE6ByCdQ5DOYsCAixCqoj1USXuomvZQRe2hqtpDlbWHqmsPVdgeqrJ9VGX7sLUaVdk+qrJ9q8q2CPZ7KOWQ5FdfRrxCDll99WXEee+QxldfRpzzDnl79WXE+e6SqOegA6pjeRtzCclz0AGVsryHueTeOeiAqlnewFyi7BzWQVA9y7uXSzqdgw6onuWtyyFw7qGMS8Kcg454eVwy5Bx0xOnukhLnoCNOd5ccOAcdcbo7Jb25CKEqWt7BnMLbXIRQRS1vYk55bC5CqLqW9zGniDWXlRFV2fJW5pSa5iKEqmx5N3sk9EsSxkmY3SlP7ajm6WS0ZSKpejv/F4x22t5O8e8vdX+n40nbXHvhP/RevNjbOzwEWPirt+is3mJv9Rbd1Vv0Vm+xv3qLg9VbHK7eYmFnX5XHGua3t4YJ7q1hhntrmOLeGua4t4ZJ7q1hlntrmObeGua5v4Z57q9jH1/DPPfXMM/9evPcLzyCTPJoV2urOh3fP+gBLOS7AbOQbwbMQr4XMAt5yYVZyCsuzEJecGEW8noLs5CXW5hFySfXOA/5oz+ch/ypIM5D/sAQ57GGKV7SVuE81jDJS9oqnMcapnlJW4Xb/+S2Cuexjn18DRt5SVuF86g3zzvG41USCh7+YbW2yvP29zsdgIV8N2AW8s2AWcj3AmYhL7kwC3nFhVnICy7MQl5vYRby30bBLEraKpyH3FbhPOS2Cucht1U4D/lPtHAe8t8l4jzkP1nEech/zYjzkP/QEeexhnle0lbhPNaxj69hIy9pq3Ae9bbyPePx7nIieRxUa6sO86P7HcBCvhswC/lmwCzkewGzkNsqmIXcVsEs5LYKZiG3VTALebmFWZS0VTgPua3CechtFc5DbqtwHnJbhfOQ2yqch9xW4TzktgrnIbdVOI81zPOStgrnsY59fA0beUlbhfOot5V3jcd/9EDy2K/WVr18eXy8vw+wkO8GzEK+GTAL+V7ALOS2CmYht1UwC7mtglnIbRXMQl5uYRYlbRXOQ26rcB5yW4XzkNsqnIfcVuE85LYK5yG3VTgPua3CechtFc5jDfO8pK3CeaxjH1/DRl7SVuE86m3lvaJ1m2jJo1etrTo+7vUgFvLdgFnINwNmId8LmIXcVsEs5LYKZiG3VTALua2CWcjLLcyipK3CechtFc5DbqtwHnJbhfOQ2yqch9xW4TzktgrnIbdVOA+5rcJ5rGGel7RVOI917ONr2MhL2iqcR72tfN94/BRLfxbvd6u1VQcHvt/tAizkuwGzkG8GzEK+FzALua2CWchtFcxCbqtgFnJbBbMoy50CWZSGraE8ytKqUB5lQVYoj7KMK5RHWfwVyqMs8w3lURYHh/IoS4pDeZSFyKE81jDPS9oqnMc69vE1bOQlbRXOY/lW/qFKwussk1kdqZG+mQfIFrmxzfR6uF0kwC6Nip0HO6c6+y6ejAZps9veVp7X3VYd829+t1rc7G2OcR9KPRgcB5kexsndi9swncYi37//CunRucCbZKCTtxOTUlz5RMNxt8jxkw7SSaKnGCZoeXbdVxzPzWEOc5jDHOYwhznMYQ5zmMMc5jCHOcxhDnOYwxzmMIc5zGEOc5jDHOYwhznMYQ5zmMMc5jCHOcxhDnOYwxzmMIc5zGEOc5jDHOYwhznM4b/U8F0rvtZJEg70T4F5sNZrtR2fVzWPxqaLj8ae6iTU6ezx2sb2/AHicRRnrSgc6aWPyKZfek53+ZO1aav46vlxHAVZGI9yqEaa6fHOub6IE92o9uTzj3qoR4PFNzT9WbPX3lYd8+Ry2zzIbP7RiPRFZsCWSM9lW2dDnZ2MMnN9couLyahfkDa31O9LJOaE+v7s90uf5TZHeKGa2WWYttLirlQzMseDk1r59TsJ+pfN/wHbqs3xzaPjOftM92wcp6ERfJn/uMq7mR9G5gtUSXxjhzTHCkcDbebDjrdtefb8+Fj3xItQR6bemrNrOp0nwySejPVAff21+sfs57ets8sgnT3/bibY1sPRuy+O5hekFQyHr4xHK9KjYXapvlW++rdqvIiihnq++Io0Cvu6ueNtvW9/2Fo63x69kzhRzY/5W2l/oz7mNrNSnfman/0zX3Hsb5A5TBnP9N5//ND6pO/U0dHR9OLVUyxUZ7f9o+1bnR/niQ4+1Tn5s+U5tq8312v27o5MWZtimFVKEeTQOgvSNByO9ODYRESk74sr+aHepZzf6PEkvWzWvRf5LX0+vZ/1Z1IUPa/yLlvmlXVd0iyJP+lqPtPX1nWKx0E/zO6qWc1eXPtdFRZzq7oq84VkcVmpMz2sFx9zzKfz4sKjdpRnq2Yz3aqzft4udtVKr/+8rKcwx+6u+uXXd+q/b359q07fvH33w8/fqx/ffP/DsXp98vakmsCrfNXWt4Fp0VQWqzROMjWaXOV10FdFpEmqgrSfNy/haFhBcX7tjc6DnTnYVufVF5dEZ5NkpMZBkupXURxkzcAs+Vv5rXzws/PiZ5Uu5vIW7YHt7C0sE/682qSX+/6zmO7FZG8+G+iLYBJlapzE+Rqmn22rZ18dHBwfn5w8W3HwDHGIQxziEIc4xCEOcYhDHOL8NXFUOrnK/xNYDbT5oRoEd4Yo0QPSkIY0pCENaUhDGtKQhjSkIU05zU3xp1l/oDmPJpo4xCEOcYhDHOIQhzjEIQ5xiFMH5/57Az3zvYGnE+l7Azte8Qnbixd7e4eHJCUpSUlKUpKSlKQkJSlJSUpSkpJ0M0j9gjTIJNJ2Qdrp+P5Bj6QkJSlJSUpSkpKUpCQlKUlJSlKSbgZpx5C+SkKB1D8sSD1vf7/TISlJSUpSkpKUpCQlKUlJSlKSkpSkm0G6Z0jfXU4k0oOC9DA/ut+RlKQkJSlJSUpSkpKUpCQlKUlJStLNIO0a0v/ogUS6X5C+fHl8vL9PUpKSlKQkJSlJSUpSkpKUpCQlKUk3g7RX/GZioiXSXkF6fNzrkZSkJCUpSUlKUpKSlKQkJSlJSUrSTSHdN6Q/xVKyoN8tSA8OfL/bJSlJSUpSkpKUpCQlKUlJSlKSkpSkayOdowyS4Ka5VOy2lYVZpE8vg7FuZfo2az57HU+SdDnG3eMzX4ZXepSG8SjSaaGwRGJ3V70YDFSgCiV1E2aXKo2vtBp0lpyZXg9bwXisR4Nmw3g3tpacMD9aQZYlzcZtY1v12pYn3eUn+dVPSrO7SE/xdoJR/zJO8vMbkb6woJ1pXMSjbOdGh8PLzGicx9Ggusb03pyOd74L+p/OTsdBX6vTu3RnT72Kkh1PnfYvd07U61+i/lW2M4qT/Cb89rP6+eT4O/OyTF+pPfXL6W/qTb9vXvtsq+y2frub9pNwnP1LfM23u4Pw+svD4jmyWK6lwsFRo29q/ji/TEE40snZXruhimt31BiE6TgK7p6Hoygf2jmP4v6nbxoyXy46fQsquxvn55vLt/sxuA6mPy090xzXQWLKUx2pQXg1jnRrpG9Or4fNxlePGbfVXrtd/GPpdDOygyALct33vzei4FxHjeeNgb4IJlGmxkl8EUa6sT0dObttPPda7e3GdRBN9Ozf+2ZVys/JF5rj45OTxuftSjo+SKcD0tkD6XRBOj2Qzj5I5wCkcwjS8dooIVRFe6iS9lA17aGK2kNVtYcqaw9V1x6qsD1UZfuoyvZhazWqsn1UZftWla3SydXVwtdUV9rREj2wkBGvkZ2MeIXsZMTrYycjzns7GXHW28mIc95ORpzxdjLifLeTkTcySx1QHcvbmKUOqJLlTcxSB1TL8hZmqQOqZnkDs9QB1bO8fVnqoNZlUD3Le5elTvV6vglHmf22dW5+VF1HvDyWOuLlsdQRL4+ljjjdLXXE6W6pI053Sx1xulvqiNPdUkfev2yFUBUt72C2QqialvcwWyFUVcu7mK0Qqq7lfcxWCFXZ8k5mKwRbq1GVLW9mtkLVK/v+c4ul3yssbXPthf/Qm37xMMDCX71FZ/UWe6u36K7eord6i/3VWxys3uJw9RYLO/uqPNYwv0t+MYvzkH+zhfOQf+mF85B/04vzkH8JjPOQfz+M85B/dYzzkH+rjNv/1jDP/XXs42vYyP017OR+va186dc3Vmurpt/vCLCQ7wbMQr4ZMAv5XsAs5LYKZiG3VTALua2CWchtFcxCbqtgFiWfXOM85I/+cB5yW4XzkNsqnIfcVuE85LYK5yG3VTgPua3CechtFc5Dbqtw+98a5nnJR/w4jzVs5CVtFc6j3la+9FuyqrVV06/RAljIdwNmId8MmIV8L2AWclsFs5DbKpiF3FbBLOS2CmYht1Uwi5K2CuchL7c4D7mtwnnIbRXOQ26rcB5yW4XzkNsqnIfcVuE85LYK5yG3Vbj9bw3zvKStwnmsYSMvaatwHvW28qVfRlKtrZp+WwnAQr4bMAv5ZsAs5HsBs5DbKpiF3FbBLOS2CmYht1UwC7mtglmUtFU4D3m5xXnIbRXOQ26rcB5yW4XzkNsqnIfcVuE85LYK5yG3VTgPua3C7X9rmOclbRXOYw0beUlbhfOot5UvzXyv1lZNQ+EBFvLdgFnINwNmId8LmIXcVsEs5LYKZiG3VTALua2CWchtFcyipK3CecjLLc5DbqtwHnJbhfOQ2yqch9xW4TzktgrnIbdVOA+5rcJ5yG0Vbv9bwzwvaatwHmvYyEvaKpxHva18abRutbZqmr0LsJDvBsxCvhkwC/lewCzktgpmIbdVMAu5rYJZyG0VzEJuq2AWJW0VzkNebnEecluF85DbKpyH3FbhPOS2Cucht1U4D7mtwnnIbRXOQ26rcPvfGuZ5SVuF81jDRl7SVuE86m3lSxMMq7VV04hDgIV8N2AW8s2AWcj3AmYht1UwC7mtglnIbRXMQm6rYBZyWwWzKA1bQ3nIyy3OoyzICuVRlnGF8iiLv0J5lGW+oTzK4uBQHmVJcSiPshA5lEdZvhxq/1vDPC9NpUN5rGEjL2mrcB7Lt/IPVRJeZ+HN6kiN9M08QLbIjW2m18PtIgF2aVTsPAE61dl38WQ0SJvd9rbyvO626ph/87vV4mZvc4z7YOvB4DjI9DBO7l7chuk0Qfn+/VeImc4F3iQDnbydmEDjyicajrtFjp90kE4SPcUwmcyz677iiG8Oc5jDHOYwhznMYQ5zmMMc5jCHOcxhDnOYwxzmMIc5zGEOc5jDHOYwhznMYQ5zmMMc5jCHOcxhDnOYwxzmMIc5zGEOc5jDHOYwhznMYQ7/pYbvWvG1TpJwoH8KzIO1Xqvt+LyqeTQ2XXw09lQnoU5nj9c2tucPEI+jOGtF4UgvfUQ2/dJzusufrE1bxVfPj+MoyMJ4lEM10kyPd871RZzoRrUnn3/UQz0aLL6h6c+avfa26pgnl9vmQWbzj0akLzIDtkR6Lts6G+rsZJSZ65NbXExG/YK0uaV+XyIxJ9T3Z79f+iy3OcIL1cwuw7SVFnelmpE5HpzUyq/fSdC/bP4P2FZtjm8eHc/ZZ7pn4zgNjeDL/MdV3s38MDJfoEriGzukOVY4GmgzH3a8bcuz58fHuidehDoy9dacXdPpPBkm8WSsB+rrr9U/Zj+/bZ1dBuns+XczwbYejt59cTS/IK1gOHxlPFqRHg2zS/Wt8tW/VeNFFDXU88VXpFHY180db+t9+8PW0vn26J3EiWp+zN9K+xv1MbeZlerM1/zsn/mKY3+DzGHKeKb3/uOH1id9p46OjqYXr55ioTq77R9t3+r8OE908KnOyZ8tz7F9vbles3d3ZMraFMOsUoogh9ZZkKbhcKQHxyYiIn1fXMkP9S7l/EaPJ+lls+69yG/p8+n9rD+Touh5lXfZMq+s65JmSfxJV/OZvrauUzwO+mF2V81q9uLa76qwmFvVVZkvJIvLSp3pYb34mGM+nRcXHrWjPFs1m+lWnfXzdrGrVnr952U9hTl2d9Uvv75T/33z61t1+ubtux9+/l79+Ob7H47V65O3J9UEXuWrtr4NTIumslilcZKp0eQqr4O+KiJNUhWk/bx5CUfDCorza290HuzMwbY6r764JDqbJCM1DpJUv4riIGsGZsnfym/lg5+dFz+rdDGXt2gPbGdvYZnw59Umvdz3n8V0LyZ789lAXwSTKFPjJM7XMP1sWz376uDg+Pjk5NmKg2eIQxziEIc4xCEOcYhDHOIQ56+Jo9LJVf6fwGqgzQ/VILgzRIkekIY0pCENaUhDGtKQhjSkIQ1pymluij/N+gPNeTTRxCEOcYhDHOIQhzjEIQ5xiEOcOjj33xvome8NPJ1I3xvY8YpP2F682Ns7PCQpSUlKUpKSlKQkJSlJSUpSkpKUpJtB6hekQSaRtgvSTsf3D3okJSlJSUpSkpKUpCQlKUlJSlKSknQzSDuG9FUSCqT+YUHqefv7nQ5JSUpSkpKUpCQlKUlJSlKSkpSkJN0M0j1D+u5yIpEeFKSH+dH9jqQkJSlJSUpSkpKUpCQlKUlJSlKSbgZp15D+Rw8k0v2C9OXL4+P9fZKSlKQkJSlJSUpSkpKUpCQlKUlJuhmkveI3ExMtkfYK0uPjXo+kJCUpSUlKUpKSlKQkJSlJSUpSkm4K6b4h/SmWkgX9bkF6cOD73S5JSUpSkpKUpCQlKUlJSlKSkpSkJF0b6RxlkAQ3zaVit60szCJ9ehmMdSvTt1nz2et4kqTLMe4en/kyvNKjNIxHkU4LhSUSu7vqxWCgAlUoqZswu1RpfKXVoLPkzPR62ArGYz0aNBvGu7G15IT50QqyLGk2bhvbqte2POkuP8mvflKa3UV6ircTjPqXcZKf34j0hQXtTOMiHmU7NzocXmZG4zyOBtU1pvfmdLxzHCf67K3OgjBSp3fpTke9ipIdT532L3eO1etfov5VtqODNFO//ax+Pjn+zrwq01eqo345/U296ffNS59tld3Wb3fTfhKOs3+Jr/l2dxBef3lYPEcWy7VUODhq9E3NH+eXKQhHOjnb8xqquHZHjUGYjqPg7nk4ivKhnfMo7n/6piHz5aLTt6Cyu3F+vrl8ux+D62D609IzzXEdJKY81ZEahFfjSLdG+ub0ethsfPWYcVvttdvFP5ZONyM7CLIg133/eyMKznXUeN4Y6ItgEmVqnMQXYaQb29ORs9vGc6/V3m5cB9FEz/69b1al/Jx8oTk+PjlpfN6upOODdDognT2QThek0wPp7IN0DkA6hyAdr40SQlW0hyppD1XTHqqoPVRVe6iy9lB17aEK20NVto+qbB+2VqMq20dVtm9V2SqdXF0tfE11pR0t0QMLGfEa2cmIV8hORrw+djLivLeTEWe9nYw45+1kxBlvJyPOdzsZeSOz1AHVsbyNWeqAKlnexCx1QLUsb2GWOqBqljcwSx1QPcvbl6UOal0G1bO8d1nqVK/nm3CU2W9b5+ZH1XXEy2OpI14eSx3x8ljqiNPdUkec7pY64nS31BGnu6WOON0tdeT9y1YIVdHyDmYrhKppeQ+zFUJVtbyL2Qqh6lrex2yFUJUt72S2QrC1GlXZ8mZmK1S9su8/t1j6vcLSNtde+A+96RcPAyz81Vt0Vm+xt3qL7uotequ32F+9xcHqLQ5Xb7Gws6/KYw3zu+QXszgP+TdbOA/5l144D/k3vTgP+ZfAOA/598M4D/lXxzgP+bfKuP1vDfPcX8c+voaN3F/DTu7X28qXfn1jtbZq+v2OAAv5bsAs5JsBs5DvBcxCbqtgFnJbBbOQ2yqYhdxWwSzktgpmUfLJNc5D/ugP5yG3VTgPua3CechtFc5DbqtwHnJbhfOQ2yqch9xW4Tzktgq3/61hnpd8xI/zWMNGXtJW4TzqbeVLvyWrWls1/RotgIV8N2AW8s2AWcj3AmYht1UwC7mtglnIbRXMQm6rYBZyWwWzKGmrcB7ycovzkNsqnIfcVuE85LYK5yG3VTgPua3CechtFc5DbqtwHnJbhdv/1jDPS9oqnMcaNvKStgrnUW8rX/plJNXaqum3lQAs5LsBs5BvBsxCvhcwC7mtglnIbRXMQm6rYBZyWwWzkNsqmEVJW4XzkJdbnIfcVuE85LYK5yG3VTgPua3CechtFc5DbqtwHnJbhfOQ2yrc/reGeV7SVuE81rCRl7RVOI96W/nSzPdqbdU0FB5gId8NmIV8M2AW8r2AWchtFcxCbqtgFnJbBbOQ2yqYhdxWwSxK2iqch7zc4jzktgrnIbdVOA+5rcJ5yG0VzkNuq3AecluF85DbKpyH3Fbh9r81zPOStgrnsYaNvKStwnnU28qXRutWa6um2bsAC/luwCzkmwGzkO8FzEJuq2AWclsFs5DbKpiF3FbBLOS2CmZR0lbhPOTlFucht1U4D7mtwnnIbRXOQ26rcB5yW4XzkNsqnIfcVuE85LYKt/+tYZ6XtFU4jzVs5CVtFc6j3la+NMGwWls1jTgEWMh3A2Yh3wyYhXwvYBZyWwWzkNsqmIXcVsEs5LYKZiG3VTCL0rA1lIe83OI8yoKsUB5lGVcoj7L4K5RHWeYbyqMsDg7lUZYUh/IoC5FDeZTly6H2vzXM89JUOpTHGjbykrYK57F8K/9QJeF1Ft6sjtRI38wDZIvc2GZ6PdwuEmCXRsXOE6BTnX0XT0aDtNltbyvP626rjvk3v1stbvY2x7gPth4MjoNMD+Pk7sVtmE4TlO/ff4WY6VzgTTLQyduJCTSufKLhuFvk+EkH6STRUwyTyTy77iuO+OYwhznMYQ5zmMMc5jCHOcxhDnOYwxzmMIc5zGEOc5jDHOYwhznMYQ5zmMMc5jCHOcxhDnOYwxzmMIc5zGEOc5jDHOYwhznMYQ5zmMMc5vBfaviuFV/rJAkH+qfAPFjrtdqOz6uaR2PTxUdjT3US6nT2eG1je/4A8TiKs1YUjvTSR2TTLz2nu/zJ2rRVfPX8OI6CLIxHOVQjzfR451xfxIluVHvy+Uc91KPB4hua/qzZa2+rjnlyuW0eZDb/aET6IjNgS6Tnsq2zoc5ORpm5PrnFxWTUL0ibW+r3JRJzQn1/9vulz3KbI7xQzewyTFtpcVeqGZnjwUmt/PqdBP3L5v+AbdXm+ObR8Zx9pns2jtPQCL7Mf1zl3cwPI/MFqiS+sUOaY4WjgTbzYcfbtjx7fnyse+JFqCNTb83ZNZ3Ok2EST8Z6oL7+Wv1j9vPb1tllkM6efzcTbOvh6N0XR/ML0gqGw1fGoxXp0TC7VN8qX/1bNV5EUUM9X3xFGoV93dzxtt63P2wtnW+P3kmcqObH/K20v1Efc5tZqc58zc/+ma849jfIHKaMZ3rvP35ofdJ36ujoaHrx6ikWqrPb/tH2rc6P80QHn+qc/NnyHNvXm+s1e3dHpqxNMcwqpQhyaJ0FaRoOR3pwbCIi0vfFlfxQ71LOb/R4kl42696L/JY+n97P+jMpip5XeZct88q6LmmWxJ90NZ/pa+s6xeOgH2Z31axmL679rgqLuVVdlflCsris1Jke1ouPOebTeXHhUTvKs1WzmW7VWT9vF7tqpdd/XtZTmGN3V/3y6zv13ze/vlWnb96+++Hn79WPb77/4Vi9Pnl7Uk3gVb5q69vAtGgqi1UaJ5kaTa7yOuirItIkVUHaz5uXcDSsoDi/9kbnwc4cbKvz6otLorNJMlLjIEn1qygOsmZglvyt/FY++Nl58bNKF3N5i/bAdvYWlgl/Xm3Sy33/WUz3YrI3nw30RTCJMjVO4nwN08+21bOvDg6Oj09Onq04eIY4xCEOcYhDHOIQhzjEIQ5x/po4Kp1c5f8JrAba/FANgjtDlOgBaUhDGtKQhjSkIQ1pSEMa0pCmnOam+NOsP9CcRxNNHOIQhzjEIQ5xiEMc4hCHOMSpg3P/vYGe+d7A04n0vYEdr/iE7cWLvb3DQ5KSlKQkJSlJSUpSkpKUpCQlKUlJuhmkfkEaZBJpuyDtdHz/oEdSkpKUpCQlKUlJSlKSkpSkJCUpSTeDtGNIXyWhQOofFqSet7/f6ZCUpCQlKUlJSlKSkpSkJCUpSUlK0s0g3TOk7y4nEulBQXqYH93vSEpSkpKUpCQlKUlJSlKSkpSkJCXpZpB2Del/9EAi3S9IX748Pt7fJylJSUpSkpKUpCQlKUlJSlKSkpSkm0HaK34zMdESaa8gPT7u9UhKUpKSlKQkJSlJSUpSkpKUpCQl6aaQ7hvSn2IpWdDvFqQHB77f7ZKUpCQlKUlJSlKSkpSkJCUpSUlK0rWRzlEGSXDTXCp228rCLNKnl8FYtzJ9mzWfvY4nSboc4+7xmS/DKz1Kw3gU6bRQWCKxu6teDAYqUIWSugmzS5XGV1oNOkvOTK+HrWA81qNBs2G8G1tLTpgfrSDLkmbjtrGtem3Lk+7yk/zqJ6XZXaSneDvBqH8ZJ/n5jUhfWNDONC7iUbZzo8PhZWY0zuNoUF1jem9Oxzuvklzm7K3OgjBSp3fpTke9ipIdT532L3eO1etfov5VtpPGk/w2/Paz+vnk+DvzskxfqY765fQ39abfN699tlV2Y7/dTftJOM7+Jb7m291BeP3lYfEcWSzXUuHgqNE3VX+cv8MgHOnkbM9vqOLqHTUGYTqOgrvn4SjKh3bOo7j/6ZuGzJeLTt+Cyu7G+fnmAu5+DK6D6U9LzzTHdZCYAlVHahBejSPdGumb0+ths/HVY8ZttdduF/9YOuGM7CDIglz3/e+NKDjXUeN5Y6AvgkmUqXESX4SRbmxPR85uG8+9Vnu7cR1EEz37975Zl/Jz8qXm+PjkpPF5u5KOD9LpgHT2QDpdkE4PpLMP0jkA6RyCdLw2SghV0R6qpD1UTXuoovZQVe2hytpD1bWHKmwPVdk+qrJ92FqNqmwfVdm+VWWrdHJ1tfBF1ZV2tEQPLGTEa2QnI14hOxnx+tjJiPPeTkac9XYy4py3kxFnvJ2MON/tZOSNzFIHVMfyNmapA6pkeROz1AHVsryFWeqAqlnewCx1QPUsb1+WOqh1GVTP8t5lqVO9nm/CUWa/bZ2bH1XXES+PpY54eSx1xMtjqSNOd0sdcbpb6ojT3VJHnO6WOuJ0t9SR9y9bIVRFyzuYrRCqpuU9zFYIVdXyLmYrhKpreR+zFUJVtryT2QrB1mpUZcubma1Q9cq+/+Ri6TcLS9tce+E/9KZfPQyw8Fdv0Vm9xd7qLbqrt+it3mJ/9RYHq7c4XL3Fws6+Ko81zO+SX8ziPOTfbOE85F964Tzk3/TiPORfAuM85N8P4zzkXx3jPOTfKuP2vzXMc38d+/gaNnJ/DTu5X28rX/oFjtXaquk3PAIs5LsBs5BvBsxCvhcwC7mtglnIbRXMQm6rYBZyWwWzkNsqmEXJJ9c4D/mjP5yH3FbhPOS2Cucht1U4D7mtwnnIbRXOQ26rcB5yW4XzkNsq3P63hnle8hE/zmMNG3lJW4XzqLeVL/2erGpt1fSLtAAW8t2AWcg3A2Yh3wuYhdxWwSzktgpmIbdVMAu5rYJZyG0VzKKkrcJ5yMstzkNuq3AecluF85DbKpyH3FbhPOS2Cucht1U4D7mtwnnIbRVu/1vDPC9pq3Aea9jIS9oqnEe9rXzp15FUa6um31cCsJDvBsxCvhkwC/lewCzktgpmIbdVMAu5rYJZyG0VzEJuq2AWJW0VzkNebnEecluF85DbKpyH3FbhPOS2Cucht1U4D7mtwnnIbRXOQ26rcPvfGuZ5SVuF81jDRl7SVuE86m3lS1Pfq7VV01h4gIV8N2AW8s2AWcj3AmYht1UwC7mtglnIbRXMQm6rYBZyWwWzKGmrcB7ycovzkNsqnIfcVuE85LYK5yG3VTgPua3CechtFc5DbqtwHnJbhdv/1jDPS9oqnMcaNvKStgrnUW8rXxquW62tmqbvAizkuwGzkG8GzEK+FzALua2CWchtFcxCbqtgFnJbBbOQ2yqYRUlbhfOQl1uch9xW4TzktgrnIbdVOA+5rcJ5yG0VzkNuq3AecluF85DbKtz+t4Z5XtJW4TzWsJGXtFU4j3pb+dIMw2pt1TTkEGAh3w2YhXwzYBbyvYBZyG0VzEJuq2AWclsFs5DbKpiF3FbBLErD1lAe8nKL8ygLskJ5lGVcoTzK4q9QHmWZbyiPsjg4lEdZUhzKoyxEDuVRli+H2v/WMM9LU+lQHmvYyEvaKpzH8q38Q5WE11l8szpSI30zD5AtcmOb6fVwu0iAXRoVO8+ATnX2XTwZDdJmt72tPK+7rTrm3/xutbjZ2xzjPtp6MDgOMj2Mk7sXt2E6zVC+f/8VgqZzgTfJQCdvJybSuPKJhuNukeMnHaSTRE8xTCrz7LqvOOSbwxzmMIc5zGEOc5jDHOYwhznMYQ5zmMMc5jCHOcxhDnOYwxzmMIc5zGEOc5jDHOYwhznMYQ5zmMMc5jCHOcxhDnOYwxzmMIc5zGEOc5jDf6nhu1Z8rZMkHOifAvNgrddqOz6vah6NTRcfjT3VSajT2eO1je35A8TjKM5aUTjSSx+RTb/0nO7yJ2vTVvHV8+M4CrIwHuVQjTTT451zfREnulHtyecf9VCPBotvaPqzZq+9rTrmyeW2eZDZ/KMR6YvMgC2Rnsu2zoY6Oxll5vrkFheTUb8gbW6p35dIzAn1/dnvlz7LbY7wQjWzyzBtpcVdqWZkjgcntfLrdxL0L5v/A7ZVm+ObR8dz9pnu2ThOQyP4Mv9xlXczP4zMF6iS+MYOaY4VjgbazIcdb9vy7Pnxse6JF6GOTL01Z9d0Ok+GSTwZ64H6+mv1j9nPb1tnl0E6e/7dTLCth6N3XxzNL0grGA5fGY9WpEfD7FJ9q3z1b9V4EUUN9XzxFWkU9nVzx9t63/6wtXS+PXoncaKaH/O30v5GfcxtZqU68zU/+2e+4tjfIHOYMp7pvf/4ofVJ36mjo6PpxaunWKjObvtH27c6P84THXyqc/Jny3NsX2+u1+zdHZmyNsUwq5QiyKF1FqRpOBzpwbGJiEjfF1fyQ71LOb/R40l62ax7L/Jb+nx6P+vPpCh6XuVdtswr67qkWRJ/0tV8pq+t6xSPg36Y3VWzmr249rsqLOZWdVXmC8nislJnelgvPuaYT+fFhUftKM9WzWa6VWf9vF3sqpVe/3lZT2GO3V31y6/v1H/f/PpWnb55++6Hn79XP775/odj9frk7Uk1gVf5qq1vA9OiqSxWaZxkajS5yuugr4pIk1QFaT9vXsLRsILi/NobnQc7c7CtzqsvLonOJslIjYMk1a+iOMiagVnyt/Jb+eBn58XPKl3M5S3aA9vZW1gm/Hm1SS/3/Wcx3YvJ3nw20BfBJMrUOInzNUw/21bPvjo4OD4+OXm24uAZ4hCHOMQhDnGIQxziEIc4xPlr4qh0cpX/J7AaaPNDNQjuDFGiB6QhDWlIQxrSkIY0pCENaUhDmnKam+JPs/5Acx5NNHGIQxziEIc4xCEOcYhDHOIQpw7O/fcGeuZ7A08n0vcGdrziE7YXL/b2Dg9JSlKSkpSkJCUpSUlKUpKSlKQkJelmkPoFaZBJpO2CtNPx/YMeSUlKUpKSlKQkJSlJSUpSkpKUpCTdDNKOIX2VhAKpf1iQet7+fqdDUpKSlKQkJSlJSUpSkpKUpCQlKUk3g3TPkL67nEikBwXpYX50vyMpSUlKUpKSlKQkJSlJSUpSkpKUpJtB2jWk/9EDiXS/IH358vh4f5+kJCUpSUlKUpKSlKQkJSlJSUpSkm4Gaa/4zcRES6S9gvT4uNcjKUlJSlKSkpSkJCUpSUlKUpKSlKSbQrpvSH+KpWRBv1uQHhz4frdLUpKSlKQkJSlJSUpSkpKUpCQlKUnXRjpHGSTBTXOp2G0rC7NIn14GY93K9G3WfPY6niTpcoy7x2e+DK/0KA3jUaTTQmGJxO6uejEYqEAVSuomzC5VGl9pNegsOTO9HraC8ViPBs2G8W5sLTlhfrSCLEuajdvGtuq1LU+6y0/yq5+UZneRnuLtBKP+ZZzk5zcifWFBO9O4iEfZzo0Oh5eZ0TiPo0F1jem9OR3v/BKHo+zszcXZaZBf7dO7dKejXkXJjqdO+5c7x+r1L1H/KttJ40l+H377Wf18cvydeVmmr1RH/XL6m3rT75vXPtsqu7Pf7qb9JBxn/xJf8+3uILz+8rB4jiyWa6lwcNTom7I/zq9UEI50crbXaaji8h01BmE6joK75+Eoyod2zqO4/+mbhsyXi07fgsruxvn55grufgyug+lPS880x3WQmApVR2oQXo0j3Rrpm9PrYbPx1WPGbbXXbhf/WDrjjOwgyIJc9/3vjSg411HjeWOgL4JJlKlxEl+EkW5sT0fObhvPvVZ7u3EdRBPdeN47bB0+OA4Otxt9s0zlCvnKc3x8ctL4vF1J1V+JamclqnsrUe2uRLW3EtX9lagerET1cCWqXns1squZXd5qppe3mvnlrWaCeauZYd5qppi3mjnmrWaSeauZZf5qZpm/oj1sNbPMX80s8x1mmUonV1cL3/xdo0NI9MBCtOK1tROteGXtRCteVzvRimuXnWjFlctOtOK6ZSdacdWyE624ZtmJVm0MLFVXMqeqtgWWqiuZVVWbAkvVlcyrqi2BpepKZlbVhsBSdSVzq2o7YKm6mv1qJXOrai9gqVp3bt2Eo8y1DTg3L6iuWvGyWqpWvKyWqhUvq6VqxSXLUrXikmWpWnHJslStuGRZqlZcsixVq/YDtrKrmV1VOwJb2dXMr6o9ga3samZY1a7AVnY1c6xqX2Aru5pZVrUzsJVd0R62mllWtTmwlbWaZR+qfOAw+zhRHamRvpl/nlF8jNFMr4fbxQcSSz+5mH8mmersu3gyGqTNbntbeV53W3XMv/ndap9+3OYY9x+1DgbHQaaHcXL34jZMp5/p3V+KCh985gJvkoFO3k7MR2yVTzQcd4scP+kgnSR6imE+JZzdAtePcovPkRatTnUS6nSGmzvNbsg4irOW+XBrqWX6pfe9nDRtFXU3jqMgC+NRDtVIMz3eOdcXcaIb1SrpRz3Uo8HiG5r+rNnLq6BjKsF8GOaZf8w+KV36IfJctnU21NnJKDPXJ7e4mIz6BWlzS/1e4aNSQ6jvz36/dG6YI7xQzewyTPO6NudVMzLHg5Na+fU7CfqXzf8B26rN8WefDc50z8ZxGhrBl/mPq7yb+WFkvkCVxDd2SHOscDTQZuLueNuWZ8+Pj3VPvAh1ZOqtObum03kyTOLJWA/U11+rf8x+fts6uwzS2XpiJtjWw9G7L47mF6QVDIevjEcr0qNhdqm+Vb76t2q8iKKGer74ijQK+7q54229b3/YWjrfHr2TOFHNj/lbaX+jPuY2s1Kd+Zqf/fNIefY3yBymjGd67z9+aH3S+fJ2dDS9ePUUC9XZbf9o+1bnx3mig091Tv5seY7t6831mr27I1PWphhmlVJsjK2z6Z8B6UHxh0Dp++JKfqh3Kec3ejxJL5t170V+S59P72f9mRRFz6u8y5Z5ZV2XNEviT7qaz/S1dZ3icdAPs7tqVrMX135XhcXcqq7KfCFZXFbqTA/rxccc8+m8uPCoHeXZqtlMt+qsn7eLXbXS6z8v6ynMsburfvn1nfrvm1/fqtM3b9/98PP36sc33/9wrF6fvD2pJvAqX7X1bWBaNJXFKo3zRno0ucrroK+KFjFVQdrPm5dwNKygOL/2RufBzhxsq/Pqi0uis0kyUuMgSfWrKA6yZmCW/K38Vj742Xnxs0oXc3mL9sB29haWCX/+E/5c8w8fwM7+JtN8oPqn/PUocYhDHOIQhzjEIQ5xiEMc4mw8zuM/cDFEiR6QhjSkIQ1pSEMa0pCGNKQhDWnKaR79SaChMX/iRxziEIc4xCEOcYhDHOIQhzjE+RNDEt/pq7FOgmySaNV8tcWYxCcVk/ifwFTca138z4ur81CPMmVumck91INJfv131H771WZEIO5tQATi3toiEIsHT+tGMIF0OiCdPZBOF6TTA+nsg3QOQDqHIJ2FbAEnIVRFe6iS9lA17aGK2kNVtYcqaw9V1x6qsD1UZfuoyvZhazWqsn1UZftWlV09sm9Bqn5In4OMeIXqB/E5yIjzvn7YnoOMOOfrB+o5yIjz3SE0z0UHVMfyNuYQheeiAypleQ9zCLhz0QFVs7yBOcTWuayDoHqWdy+HMDoXHVA9y1tX/Yi5BRmHUDkXHfHyOATHueiI090hHM5FR5zuDgFwLjridHcJeXMSQlW0vIO5RLc5CaGKWt7EXALZnIRQdS3vYy4xa04rI6qy5a3MJTzNSQhV2fJuxki0jYhE4zCHOcxhDnOYwxzmMIc5zGEOc5jDHObwUxq+a8XXOknCgf4pML+o8lptRuI/eCeMxL8/GIlvdTASn5H4Fgcj8f94MBL/jwcj8S0PRuIzEv+LByPxiUMc4hCHOMQhDnGIQxziEIc4mxAoSRrSkIY0pCENaUhDGtKQhjSbQ/O3CbIkDnGIQxziEIc4xCEOcYhDnPp+f0Ik/svwSo/SMB5FOk0ZiP+0AvHj5JM6ubgI+6Ee9e/uY/DXG4A/e/UfRh7+//m/T//3Xn32L/f/cx4P7sz/XmZX0b/+3/8H0t/50A=="
               },
               {
                  "name" : "annual_peak_electric_demand",
                  "units" : "kW",
                  "value" : 215.12363000000002
               },
               {
                  "name" : "first_year_capital_cost",
                  "units" : "$",
                  "value" : 0
               },
               {
                  "name" : "annual_utility_cost",
                  "units" : "$",
                  "value" : 53525.18
               },
               {
                  "name" : "total_lifecycle_cost",
                  "units" : "$",
                  "value" : 896140.65000000002
               }
            ],
            "step_warnings" : [ "A table in Annual Overview section returned false and was skipped." ]
         }
      }
   ],
   "updated_at" : "20170710T184751Z",
   "weather_file" : "USA_CO_Denver.Intl.AP.725650_TMY3.epw"
}
