{
   "completed_at" : "20170710T193013Z",
   "completed_status" : "Success",
   "created_at" : "2017-07-10 18:55:50 +0000",
   "current_step" : 5,
   "description" : "",
   "eplusout_err" : "Program Version,EnergyPlus, Version 8.7.0-78a111df4a, YMD=2017.07.10 19:08,IDD_Version 8.7.0\n   ************* IDF Context for following error/warning message:\n   ************* Note -- lines truncated at 300 characters, if necessary...\n   *************      5 Building,\n   ************* indicated Name=NECB 2011-Outpatient-NECB HDD Method-CAN_BC_Kamloops.718870_CWEC.epw created: 2017-07-10 18:56:07 +0000\n   ************* Only last 1 lines before error line shown.....\n   *************      6   NECB 2011-Outpatient-NECB HDD Method-CAN_BC_Kamloops.718870_CWEC.epw created: 2017-07-10 18:56:07 +0000, !- Name\n   ** Warning ** IP: IDF line~6 Alpha Argument length exceeds maximum, will be truncated=  NECB 2011-Outpatient-NECB HDD Method-CAN_BC_Kamloops.718870_CWEC.epw created: 2017-07-10 18:56:07 +000\n   **   ~~~   ** Will be processed as Alpha=NECB 2011-OUTPATIENT-NECB HDD METHOD-CAN_BC_KAMLOOPS.718870_CWEC.EPW CREATED: 2017-07-10 18:56:07 +0000\n   ************* IDF Context for following error/warning message:\n   ************* Note -- lines truncated at 300 characters, if necessary...\n   *************  33833 Schedule:Week:Daily,\n   ************* indicated Name=Schedule:Week:Daily {2a0835f1-e883-4bd3-923c-fe1719647055}\n   ************* Only last 10 lines before error line shown.....\n   *************  33834   Schedule:Week:Daily {2a0835f1-e883-4bd3-923c-fe1719647055}, !- Name\n   *************  33835   Sp-Floor 3 Physical Therapy 1 Sys-3 Flr-2 Sch-C HPlcmt-south ZN NECB System 3 PSZ Occ Sch Sunday, !- Sunday Schedule:Day Name\n   *************  33836   Sp-Floor 3 Physical Therapy 1 Sys-3 Flr-2 Sch-C HPlcmt-south ZN NECB System 3 PSZ Occ Sch Monday, !- Monday Schedule:Day Name\n   *************  33837   Sp-Floor 3 Physical Therapy 1 Sys-3 Flr-2 Sch-C HPlcmt-south ZN NECB System 3 PSZ Occ Sch Tuesday, !- Tuesday Schedule:Day Name\n   *************  33838   Sp-Floor 3 Physical Therapy 1 Sys-3 Flr-2 Sch-C HPlcmt-south ZN NECB System 3 PSZ Occ Sch Wednesday, !- Wednesday Schedule:Day Name\n   *************  33839   Sp-Floor 3 Physical Therapy 1 Sys-3 Flr-2 Sch-C HPlcmt-south ZN NECB System 3 PSZ Occ Sch Thursday, !- Thursday Schedule:Day Name\n   *************  33840   Sp-Floor 3 Physical Therapy 1 Sys-3 Flr-2 Sch-C HPlcmt-south ZN NECB System 3 PSZ Occ Sch Friday, !- Friday Schedule:Day Name\n   *************  33841   Sp-Floor 3 Physical Therapy 1 Sys-3 Flr-2 Sch-C HPlcmt-south ZN NECB System 3 PSZ Occ Sch Saturday, !- Saturday Schedule:Day Name\n   *************  33842   Sp-Floor 3 Physical Therapy 1 Sys-3 Flr-2 Sch-C HPlcmt-south ZN NECB System 3 PSZ Occ Sch Default, !- Holiday Schedule:Day Name\n   *************  33843   Sp-Floor 3 Physical Therapy 1 Sys-3 Flr-2 Sch-C HPlcmt-south ZN NECB System 3 PSZ Occ Sch Summer Design Day, !- SummerDesignDay Schedule:Day Name\n   ** Warning ** IP: IDF line~33843 Alpha Argument length exceeds maximum, will be truncated=  Sp-Floor 3 Physical Therapy 1 Sys-3 Flr-2 Sch-C HPlcmt-south ZN NECB System 3 PSZ Occ Sch Summer Design Da\n   **   ~~~   ** Will be processed as Alpha=SP-FLOOR 3 PHYSICAL THERAPY 1 SYS-3 FLR-2 SCH-C HPLCMT-SOUTH ZN NECB SYSTEM 3 PSZ OCC SCH SUMMER DESIGN DAY\n   ************* IDF Context for following error/warning message:\n   ************* Note -- lines truncated at 300 characters, if necessary...\n   *************  33833 Schedule:Week:Daily,\n   ************* indicated Name=Schedule:Week:Daily {2a0835f1-e883-4bd3-923c-fe1719647055}\n   ************* Only last 10 lines before error line shown.....\n   *************  33835   Sp-Floor 3 Physical Therapy 1 Sys-3 Flr-2 Sch-C HPlcmt-south ZN NECB System 3 PSZ Occ Sch Sunday, !- Sunday Schedule:Day Name\n   *************  33836   Sp-Floor 3 Physical Therapy 1 Sys-3 Flr-2 Sch-C HPlcmt-south ZN NECB System 3 PSZ Occ Sch Monday, !- Monday Schedule:Day Name\n   *************  33837   Sp-Floor 3 Physical Therapy 1 Sys-3 Flr-2 Sch-C HPlcmt-south ZN NECB System 3 PSZ Occ Sch Tuesday, !- Tuesday Schedule:Day Name\n   *************  33838   Sp-Floor 3 Physical Therapy 1 Sys-3 Flr-2 Sch-C HPlcmt-south ZN NECB System 3 PSZ Occ Sch Wednesday, !- Wednesday Schedule:Day Name\n   *************  33839   Sp-Floor 3 Physical Therapy 1 Sys-3 Flr-2 Sch-C HPlcmt-south ZN NECB System 3 PSZ Occ Sch Thursday, !- Thursday Schedule:Day Name\n   *************  33840   Sp-Floor 3 Physical Therapy 1 Sys-3 Flr-2 Sch-C HPlcmt-south ZN NECB System 3 PSZ Occ Sch Friday, !- Friday Schedule:Day Name\n   *************  33841   Sp-Floor 3 Physical Therapy 1 Sys-3 Flr-2 Sch-C HPlcmt-south ZN NECB System 3 PSZ Occ Sch Saturday, !- Saturday Schedule:Day Name\n   *************  33842   Sp-Floor 3 Physical Therapy 1 Sys-3 Flr-2 Sch-C HPlcmt-south ZN NECB System 3 PSZ Occ Sch Default, !- Holiday Schedule:Day Name\n   *************  33843   Sp-Floor 3 Physical Therapy 1 Sys-3 Flr-2 Sch-C HPlcmt-south ZN NECB System 3 PSZ Occ Sch Summer Design Day, !- SummerDesignDay Schedule:Day Name\n   *************  33844   Sp-Floor 3 Physical Therapy 1 Sys-3 Flr-2 Sch-C HPlcmt-south ZN NECB System 3 PSZ Occ Sch Winter Design Day, !- WinterDesignDay Schedule:Day Name\n   ** Warning ** IP: IDF line~33844 Alpha Argument length exceeds maximum, will be truncated=  Sp-Floor 3 Physical Therapy 1 Sys-3 Flr-2 Sch-C HPlcmt-south ZN NECB System 3 PSZ Occ Sch Winter Design Da\n   **   ~~~   ** Will be processed as Alpha=SP-FLOOR 3 PHYSICAL THERAPY 1 SYS-3 FLR-2 SCH-C HPLCMT-SOUTH ZN NECB SYSTEM 3 PSZ OCC SCH WINTER DESIGN DAY\n   ************* IDF Context for following error/warning message:\n   ************* Note -- lines truncated at 300 characters, if necessary...\n   *************  33864 Schedule:Day:Interval,\n   ************* indicated Name=Sp-Floor 3 Physical Therapy 1 Sys-3 Flr-2 Sch-C HPlcmt-south ZN NECB System 3 PSZ Occ Sch Summer Design Day\n   ************* Only last 1 lines before error line shown.....\n   *************  33865   Sp-Floor 3 Physical Therapy 1 Sys-3 Flr-2 Sch-C HPlcmt-south ZN NECB System 3 PSZ Occ Sch Summer Design Day, !- Name\n   ** Warning ** IP: IDF line~33865 Alpha Argument length exceeds maximum, will be truncated=  Sp-Floor 3 Physical Therapy 1 Sys-3 Flr-2 Sch-C HPlcmt-south ZN NECB System 3 PSZ Occ Sch Summer Design Da\n   **   ~~~   ** Will be processed as Alpha=SP-FLOOR 3 PHYSICAL THERAPY 1 SYS-3 FLR-2 SCH-C HPLCMT-SOUTH ZN NECB SYSTEM 3 PSZ OCC SCH SUMMER DESIGN DAY\n   ************* IDF Context for following error/warning message:\n   ************* Note -- lines truncated at 300 characters, if necessary...\n   *************  33871 Schedule:Day:Interval,\n   ************* indicated Name=Sp-Floor 3 Physical Therapy 1 Sys-3 Flr-2 Sch-C HPlcmt-south ZN NECB System 3 PSZ Occ Sch Winter Design Day\n   ************* Only last 1 lines before error line shown.....\n   *************  33872   Sp-Floor 3 Physical Therapy 1 Sys-3 Flr-2 Sch-C HPlcmt-south ZN NECB System 3 PSZ Occ Sch Winter Design Day, !- Name\n   ** Warning ** IP: IDF line~33872 Alpha Argument length exceeds maximum, will be truncated=  Sp-Floor 3 Physical Therapy 1 Sys-3 Flr-2 Sch-C HPlcmt-south ZN NECB System 3 PSZ Occ Sch Winter Design Da\n   **   ~~~   ** Will be processed as Alpha=SP-FLOOR 3 PHYSICAL THERAPY 1 SYS-3 FLR-2 SCH-C HPLCMT-SOUTH ZN NECB SYSTEM 3 PSZ OCC SCH WINTER DESIGN DAY\n   ************* IDF Context for following error/warning message:\n   ************* Note -- lines truncated at 300 characters, if necessary...\n   *************  35791 Schedule:Week:Daily,\n   ************* indicated Name=Schedule:Week:Daily {2ec6e1ef-a69f-42fa-b429-4fe788863682}\n   ************* Only last 10 lines before error line shown.....\n   *************  35792   Schedule:Week:Daily {2ec6e1ef-a69f-42fa-b429-4fe788863682}, !- Name\n   *************  35793   Sp-Floor 3 Undeveloped 1 Sys-4 Flr-2 Sch-E HPlcmt-south ZN NECB System 4 PSZ Occ Sch Sunday, !- Sunday Schedule:Day Name\n   *************  35794   Sp-Floor 3 Undeveloped 1 Sys-4 Flr-2 Sch-E HPlcmt-south ZN NECB System 4 PSZ Occ Sch Monday, !- Monday Schedule:Day Name\n   *************  35795   Sp-Floor 3 Undeveloped 1 Sys-4 Flr-2 Sch-E HPlcmt-south ZN NECB System 4 PSZ Occ Sch Tuesday, !- Tuesday Schedule:Day Name\n   *************  35796   Sp-Floor 3 Undeveloped 1 Sys-4 Flr-2 Sch-E HPlcmt-south ZN NECB System 4 PSZ Occ Sch Wednesday, !- Wednesday Schedule:Day Name\n   *************  35797   Sp-Floor 3 Undeveloped 1 Sys-4 Flr-2 Sch-E HPlcmt-south ZN NECB System 4 PSZ Occ Sch Thursday, !- Thursday Schedule:Day Name\n   *************  35798   Sp-Floor 3 Undeveloped 1 Sys-4 Flr-2 Sch-E HPlcmt-south ZN NECB System 4 PSZ Occ Sch Friday, !- Friday Schedule:Day Name\n   *************  35799   Sp-Floor 3 Undeveloped 1 Sys-4 Flr-2 Sch-E HPlcmt-south ZN NECB System 4 PSZ Occ Sch Saturday, !- Saturday Schedule:Day Name\n   *************  35800   Sp-Floor 3 Undeveloped 1 Sys-4 Flr-2 Sch-E HPlcmt-south ZN NECB System 4 PSZ Occ Sch Default, !- Holiday Schedule:Day Name\n   *************  35801   Sp-Floor 3 Undeveloped 1 Sys-4 Flr-2 Sch-E HPlcmt-south ZN NECB System 4 PSZ Occ Sch Summer Design Day, !- SummerDesignDay Schedule:Day Name\n   ** Warning ** IP: IDF line~35801 Alpha Argument length exceeds maximum, will be truncated=  Sp-Floor 3 Undeveloped 1 Sys-4 Flr-2 Sch-E HPlcmt-south ZN NECB System 4 PSZ Occ Sch Summer Design Da\n   **   ~~~   ** Will be processed as Alpha=SP-FLOOR 3 UNDEVELOPED 1 SYS-4 FLR-2 SCH-E HPLCMT-SOUTH ZN NECB SYSTEM 4 PSZ OCC SCH SUMMER DESIGN DAY\n   ************* IDF Context for following error/warning message:\n   ************* Note -- lines truncated at 300 characters, if necessary...\n   *************  35791 Schedule:Week:Daily,\n   ************* indicated Name=Schedule:Week:Daily {2ec6e1ef-a69f-42fa-b429-4fe788863682}\n   ************* Only last 10 lines before error line shown.....\n   *************  35793   Sp-Floor 3 Undeveloped 1 Sys-4 Flr-2 Sch-E HPlcmt-south ZN NECB System 4 PSZ Occ Sch Sunday, !- Sunday Schedule:Day Name\n   *************  35794   Sp-Floor 3 Undeveloped 1 Sys-4 Flr-2 Sch-E HPlcmt-south ZN NECB System 4 PSZ Occ Sch Monday, !- Monday Schedule:Day Name\n   *************  35795   Sp-Floor 3 Undeveloped 1 Sys-4 Flr-2 Sch-E HPlcmt-south ZN NECB System 4 PSZ Occ Sch Tuesday, !- Tuesday Schedule:Day Name\n   *************  35796   Sp-Floor 3 Undeveloped 1 Sys-4 Flr-2 Sch-E HPlcmt-south ZN NECB System 4 PSZ Occ Sch Wednesday, !- Wednesday Schedule:Day Name\n   *************  35797   Sp-Floor 3 Undeveloped 1 Sys-4 Flr-2 Sch-E HPlcmt-south ZN NECB System 4 PSZ Occ Sch Thursday, !- Thursday Schedule:Day Name\n   *************  35798   Sp-Floor 3 Undeveloped 1 Sys-4 Flr-2 Sch-E HPlcmt-south ZN NECB System 4 PSZ Occ Sch Friday, !- Friday Schedule:Day Name\n   *************  35799   Sp-Floor 3 Undeveloped 1 Sys-4 Flr-2 Sch-E HPlcmt-south ZN NECB System 4 PSZ Occ Sch Saturday, !- Saturday Schedule:Day Name\n   *************  35800   Sp-Floor 3 Undeveloped 1 Sys-4 Flr-2 Sch-E HPlcmt-south ZN NECB System 4 PSZ Occ Sch Default, !- Holiday Schedule:Day Name\n   *************  35801   Sp-Floor 3 Undeveloped 1 Sys-4 Flr-2 Sch-E HPlcmt-south ZN NECB System 4 PSZ Occ Sch Summer Design Day, !- SummerDesignDay Schedule:Day Name\n   *************  35802   Sp-Floor 3 Undeveloped 1 Sys-4 Flr-2 Sch-E HPlcmt-south ZN NECB System 4 PSZ Occ Sch Winter Design Day, !- WinterDesignDay Schedule:Day Name\n   ** Warning ** IP: IDF line~35802 Alpha Argument length exceeds maximum, will be truncated=  Sp-Floor 3 Undeveloped 1 Sys-4 Flr-2 Sch-E HPlcmt-south ZN NECB System 4 PSZ Occ Sch Winter Design Da\n   **   ~~~   ** Will be processed as Alpha=SP-FLOOR 3 UNDEVELOPED 1 SYS-4 FLR-2 SCH-E HPLCMT-SOUTH ZN NECB SYSTEM 4 PSZ OCC SCH WINTER DESIGN DAY\n   ************* IDF Context for following error/warning message:\n   ************* Note -- lines truncated at 300 characters, if necessary...\n   *************  35822 Schedule:Day:Interval,\n   ************* indicated Name=Sp-Floor 3 Undeveloped 1 Sys-4 Flr-2 Sch-E HPlcmt-south ZN NECB System 4 PSZ Occ Sch Summer Design Day\n   ************* Only last 1 lines before error line shown.....\n   *************  35823   Sp-Floor 3 Undeveloped 1 Sys-4 Flr-2 Sch-E HPlcmt-south ZN NECB System 4 PSZ Occ Sch Summer Design Day, !- Name\n   ** Warning ** IP: IDF line~35823 Alpha Argument length exceeds maximum, will be truncated=  Sp-Floor 3 Undeveloped 1 Sys-4 Flr-2 Sch-E HPlcmt-south ZN NECB System 4 PSZ Occ Sch Summer Design Da\n   **   ~~~   ** Will be processed as Alpha=SP-FLOOR 3 UNDEVELOPED 1 SYS-4 FLR-2 SCH-E HPLCMT-SOUTH ZN NECB SYSTEM 4 PSZ OCC SCH SUMMER DESIGN DAY\n   ************* IDF Context for following error/warning message:\n   ************* Note -- lines truncated at 300 characters, if necessary...\n   *************  35829 Schedule:Day:Interval,\n   ************* indicated Name=Sp-Floor 3 Undeveloped 1 Sys-4 Flr-2 Sch-E HPlcmt-south ZN NECB System 4 PSZ Occ Sch Winter Design Day\n   ************* Only last 1 lines before error line shown.....\n   *************  35830   Sp-Floor 3 Undeveloped 1 Sys-4 Flr-2 Sch-E HPlcmt-south ZN NECB System 4 PSZ Occ Sch Winter Design Day, !- Name\n   ** Warning ** IP: IDF line~35830 Alpha Argument length exceeds maximum, will be truncated=  Sp-Floor 3 Undeveloped 1 Sys-4 Flr-2 Sch-E HPlcmt-south ZN NECB System 4 PSZ Occ Sch Winter Design Da\n   **   ~~~   ** Will be processed as Alpha=SP-FLOOR 3 UNDEVELOPED 1 SYS-4 FLR-2 SCH-E HPLCMT-SOUTH ZN NECB SYSTEM 4 PSZ OCC SCH WINTER DESIGN DAY\n   ************* IDF Context for following error/warning message:\n   ************* Note -- lines truncated at 300 characters, if necessary...\n   *************  50538 AirLoopHVAC,\n   ************* indicated Name=Sp-Floor 1 Electrical Room Sys-3 Flr-3 Sch-H HPlcmt-east ZN NECB System 3 PSZ\n   ************* Only last 3 lines before error line shown.....\n   *************  50539   Sp-Floor 1 Electrical Room Sys-3 Flr-3 Sch-H HPlcmt-east ZN NECB System 3 PSZ, !- Name\n   *************  50540   ,                                       !- Controller List Name\n   *************  50541   Sp-Floor 1 Electrical Room Sys-3 Flr-3 Sch-H HPlcmt-east ZN NECB System 3 PSZAvailability Manager List, !- Availability Manager List Name\n   ** Warning ** IP: IDF line~50541 Alpha Argument length exceeds maximum, will be truncated=  Sp-Floor 1 Electrical Room Sys-3 Flr-3 Sch-H HPlcmt-east ZN NECB System 3 PSZAvailability Manager Lis\n   **   ~~~   ** Will be processed as Alpha=SP-FLOOR 1 ELECTRICAL ROOM SYS-3 FLR-3 SCH-H HPLCMT-EAST ZN NECB SYSTEM 3 PSZAVAILABILITY MANAGER LIST\n   ************* IDF Context for following error/warning message:\n   ************* Note -- lines truncated at 300 characters, if necessary...\n   *************  50597 AvailabilityManagerAssignmentList,\n   ************* indicated Name=Sp-Floor 1 Electrical Room Sys-3 Flr-3 Sch-H HPlcmt-east ZN NECB System 3 PSZAvailability Manager List\n   ************* Only last 1 lines before error line shown.....\n   *************  50598   Sp-Floor 1 Electrical Room Sys-3 Flr-3 Sch-H HPlcmt-east ZN NECB System 3 PSZAvailability Manager List, !- Name\n   ** Warning ** IP: IDF line~50598 Alpha Argument length exceeds maximum, will be truncated=  Sp-Floor 1 Electrical Room Sys-3 Flr-3 Sch-H HPlcmt-east ZN NECB System 3 PSZAvailability Manager Lis\n   **   ~~~   ** Will be processed as Alpha=SP-FLOOR 1 ELECTRICAL ROOM SYS-3 FLR-3 SCH-H HPLCMT-EAST ZN NECB SYSTEM 3 PSZAVAILABILITY MANAGER LIST\n   ************* IDF Context for following error/warning message:\n   ************* Note -- lines truncated at 300 characters, if necessary...\n   *************  50864 AirLoopHVAC,\n   ************* indicated Name=Sp-Floor 1 Elevator Pump Room Sys-3 Flr-3 Sch-H HPlcmt-north ZN NECB System 3 PSZ\n   ************* Only last 3 lines before error line shown.....\n   *************  50865   Sp-Floor 1 Elevator Pump Room Sys-3 Flr-3 Sch-H HPlcmt-north ZN NECB System 3 PSZ, !- Name\n   *************  50866   ,                                       !- Controller List Name\n   *************  50867   Sp-Floor 1 Elevator Pump Room Sys-3 Flr-3 Sch-H HPlcmt-north ZN NECB System 3 PSZAvailability Manager List, !- Availability Manager List Name\n   ** Warning ** IP: IDF line~50867 Alpha Argument length exceeds maximum, will be truncated=  Sp-Floor 1 Elevator Pump Room Sys-3 Flr-3 Sch-H HPlcmt-north ZN NECB System 3 PSZAvailability Manager Lis\n   **   ~~~   ** Will be processed as Alpha=SP-FLOOR 1 ELEVATOR PUMP ROOM SYS-3 FLR-3 SCH-H HPLCMT-NORTH ZN NECB SYSTEM 3 PSZAVAILABILITY MANAGER LIST\n   ************* IDF Context for following error/warning message:\n   ************* Note -- lines truncated at 300 characters, if necessary...\n   *************  50864 AirLoopHVAC,\n   ************* indicated Name=Sp-Floor 1 Elevator Pump Room Sys-3 Flr-3 Sch-H HPlcmt-north ZN NECB System 3 PSZ\n   ************* Only last 10 lines before error line shown.....\n   *************  50865   Sp-Floor 1 Elevator Pump Room Sys-3 Flr-3 Sch-H HPlcmt-north ZN NECB System 3 PSZ, !- Name\n   *************  50866   ,                                       !- Controller List Name\n   *************  50867   Sp-Floor 1 Elevator Pump Room Sys-3 Flr-3 Sch-H HPlcmt-north ZN NECB System 3 PSZAvailability Manager List, !- Availability Manager List Name\n   *************  50868   AutoSize,                               !- Design Supply Air Flow Rate {m3/s}\n   *************  50869   Sp-Floor 1 Elevator Pump Room Sys-3 Flr-3 Sch-H HPlcmt-north ZN NECB System 3 PSZ Supply Branches, !- Branch List Name\n   *************  50870   ,                                       !- Connector List Name\n   *************  50871   Node 677,                               !- Supply Side Inlet Node Name\n   *************  50872   Node 680,                               !- Demand Side Outlet Node Name\n   *************  50873   Sp-Floor 1 Elevator Pump Room Sys-3 Flr-3 Sch-H HPlcmt-north ZN NECB System 3 PSZ Demand Inlet Nodes, !- Demand Side Inlet Node Names\n   *************  50874   Sp-Floor 1 Elevator Pump Room Sys-3 Flr-3 Sch-H HPlcmt-north ZN NECB System 3 PSZ Supply Outlet Nodes; !- Supply Side Outlet Node Names\n   ** Warning ** IP: IDF line~50874 Alpha Argument length exceeds maximum, will be truncated=  Sp-Floor 1 Elevator Pump Room Sys-3 Flr-3 Sch-H HPlcmt-north ZN NECB System 3 PSZ Supply Outlet Node\n   **   ~~~   ** Will be processed as Alpha=SP-FLOOR 1 ELEVATOR PUMP ROOM SYS-3 FLR-3 SCH-H HPLCMT-NORTH ZN NECB SYSTEM 3 PSZ SUPPLY OUTLET NODES\n   ************* IDF Context for following error/warning message:\n   ************* Note -- lines truncated at 300 characters, if necessary...\n   *************  50876 NodeList,\n   ************* indicated Name=Sp-Floor 1 Elevator Pump Room Sys-3 Flr-3 Sch-H HPlcmt-north ZN NECB System 3 PSZ Supply Outlet Nodes\n   ************* Only last 1 lines before error line shown.....\n   *************  50877   Sp-Floor 1 Elevator Pump Room Sys-3 Flr-3 Sch-H HPlcmt-north ZN NECB System 3 PSZ Supply Outlet Nodes, !- Name\n   ** Warning ** IP: IDF line~50877 Alpha Argument length exceeds maximum, will be truncated=  Sp-Floor 1 Elevator Pump Room Sys-3 Flr-3 Sch-H HPlcmt-north ZN NECB System 3 PSZ Supply Outlet Node\n   **   ~~~   ** Will be processed as Alpha=SP-FLOOR 1 ELEVATOR PUMP ROOM SYS-3 FLR-3 SCH-H HPLCMT-NORTH ZN NECB SYSTEM 3 PSZ SUPPLY OUTLET NODES\n   ************* IDF Context for following error/warning message:\n   ************* Note -- lines truncated at 300 characters, if necessary...\n   *************  50923 AvailabilityManagerAssignmentList,\n   ************* indicated Name=Sp-Floor 1 Elevator Pump Room Sys-3 Flr-3 Sch-H HPlcmt-north ZN NECB System 3 PSZAvailability Manager List\n   ************* Only last 1 lines before error line shown.....\n   *************  50924   Sp-Floor 1 Elevator Pump Room Sys-3 Flr-3 Sch-H HPlcmt-north ZN NECB System 3 PSZAvailability Manager List, !- Name\n   ** Warning ** IP: IDF line~50924 Alpha Argument length exceeds maximum, will be truncated=  Sp-Floor 1 Elevator Pump Room Sys-3 Flr-3 Sch-H HPlcmt-north ZN NECB System 3 PSZAvailability Manager Lis\n   **   ~~~   ** Will be processed as Alpha=SP-FLOOR 1 ELEVATOR PUMP ROOM SYS-3 FLR-3 SCH-H HPLCMT-NORTH ZN NECB SYSTEM 3 PSZAVAILABILITY MANAGER LIST\n   ************* IDF Context for following error/warning message:\n   ************* Note -- lines truncated at 300 characters, if necessary...\n   *************  50923 AvailabilityManagerAssignmentList,\n   ************* indicated Name=Sp-Floor 1 Elevator Pump Room Sys-3 Flr-3 Sch-H HPlcmt-north ZN NECB System 3 PSZAvailability Manager List\n   ************* Only last 3 lines before error line shown.....\n   *************  50924   Sp-Floor 1 Elevator Pump Room Sys-3 Flr-3 Sch-H HPlcmt-north ZN NECB System 3 PSZAvailability Manager List, !- Name\n   *************  50925   AvailabilityManager:Scheduled,          !- Availability Manager Object Type 1\n   *************  50926   Sp-Floor 1 Elevator Pump Room Sys-3 Flr-3 Sch-H HPlcmt-north ZN NECB System 3 PSZ Availability Manager; !- Availability Manager Name 1\n   ** Warning ** IP: IDF line~50926 Alpha Argument length exceeds maximum, will be truncated=  Sp-Floor 1 Elevator Pump Room Sys-3 Flr-3 Sch-H HPlcmt-north ZN NECB System 3 PSZ Availability Manage\n   **   ~~~   ** Will be processed as Alpha=SP-FLOOR 1 ELEVATOR PUMP ROOM SYS-3 FLR-3 SCH-H HPLCMT-NORTH ZN NECB SYSTEM 3 PSZ AVAILABILITY MANAGER\n   ************* IDF Context for following error/warning message:\n   ************* Note -- lines truncated at 300 characters, if necessary...\n   *************  50928 AvailabilityManager:Scheduled,\n   ************* indicated Name=Sp-Floor 1 Elevator Pump Room Sys-3 Flr-3 Sch-H HPlcmt-north ZN NECB System 3 PSZ Availability Manager\n   ************* Only last 1 lines before error line shown.....\n   *************  50929   Sp-Floor 1 Elevator Pump Room Sys-3 Flr-3 Sch-H HPlcmt-north ZN NECB System 3 PSZ Availability Manager, !- Name\n   ** Warning ** IP: IDF line~50929 Alpha Argument length exceeds maximum, will be truncated=  Sp-Floor 1 Elevator Pump Room Sys-3 Flr-3 Sch-H HPlcmt-north ZN NECB System 3 PSZ Availability Manage\n   **   ~~~   ** Will be processed as Alpha=SP-FLOOR 1 ELEVATOR PUMP ROOM SYS-3 FLR-3 SCH-H HPLCMT-NORTH ZN NECB SYSTEM 3 PSZ AVAILABILITY MANAGER\n   ************* IDF Context for following error/warning message:\n   ************* Note -- lines truncated at 300 characters, if necessary...\n   *************  51168 AirLoopHVAC:SupplyPath,\n   ************* indicated Name=Sp-Floor 1 Elevator Pump Room Sys-3 Flr-3 Sch-H HPlcmt-north ZN NECB System 3 PSZ Node 679 Supply Path\n   ************* Only last 1 lines before error line shown.....\n   *************  51169   Sp-Floor 1 Elevator Pump Room Sys-3 Flr-3 Sch-H HPlcmt-north ZN NECB System 3 PSZ Node 679 Supply Path, !- Name\n   ** Warning ** IP: IDF line~51169 Alpha Argument length exceeds maximum, will be truncated=  Sp-Floor 1 Elevator Pump Room Sys-3 Flr-3 Sch-H HPlcmt-north ZN NECB System 3 PSZ Node 679 Supply Pat\n   **   ~~~   ** Will be processed as Alpha=SP-FLOOR 1 ELEVATOR PUMP ROOM SYS-3 FLR-3 SCH-H HPLCMT-NORTH ZN NECB SYSTEM 3 PSZ NODE 679 SUPPLY PATH\n   ************* IDF Context for following error/warning message:\n   ************* Note -- lines truncated at 300 characters, if necessary...\n   *************  52494 AirLoopHVAC,\n   ************* indicated Name=Sp-Floor 1 Locker Room Hall Sys-4 Flr-3 Sch-H HPlcmt-core ZN NECB System 4 PSZ\n   ************* Only last 3 lines before error line shown.....\n   *************  52495   Sp-Floor 1 Locker Room Hall Sys-4 Flr-3 Sch-H HPlcmt-core ZN NECB System 4 PSZ, !- Name\n   *************  52496   ,                                       !- Controller List Name\n   *************  52497   Sp-Floor 1 Locker Room Hall Sys-4 Flr-3 Sch-H HPlcmt-core ZN NECB System 4 PSZAvailability Manager List, !- Availability Manager List Name\n   ** Warning ** IP: IDF line~52497 Alpha Argument length exceeds maximum, will be truncated=  Sp-Floor 1 Locker Room Hall Sys-4 Flr-3 Sch-H HPlcmt-core ZN NECB System 4 PSZAvailability Manager Lis\n   **   ~~~   ** Will be processed as Alpha=SP-FLOOR 1 LOCKER ROOM HALL SYS-4 FLR-3 SCH-H HPLCMT-CORE ZN NECB SYSTEM 4 PSZAVAILABILITY MANAGER LIST\n   ************* IDF Context for following error/warning message:\n   ************* Note -- lines truncated at 300 characters, if necessary...\n   *************  52553 AvailabilityManagerAssignmentList,\n   ************* indicated Name=Sp-Floor 1 Locker Room Hall Sys-4 Flr-3 Sch-H HPlcmt-core ZN NECB System 4 PSZAvailability Manager List\n   ************* Only last 1 lines before error line shown.....\n   *************  52554   Sp-Floor 1 Locker Room Hall Sys-4 Flr-3 Sch-H HPlcmt-core ZN NECB System 4 PSZAvailability Manager List, !- Name\n   ** Warning ** IP: IDF line~52554 Alpha Argument length exceeds maximum, will be truncated=  Sp-Floor 1 Locker Room Hall Sys-4 Flr-3 Sch-H HPlcmt-core ZN NECB System 4 PSZAvailability Manager Lis\n   **   ~~~   ** Will be processed as Alpha=SP-FLOOR 1 LOCKER ROOM HALL SYS-4 FLR-3 SCH-H HPLCMT-CORE ZN NECB SYSTEM 4 PSZAVAILABILITY MANAGER LIST\n   ************* IDF Context for following error/warning message:\n   ************* Note -- lines truncated at 300 characters, if necessary...\n   *************  53472 AirLoopHVAC,\n   ************* indicated Name=Sp-Floor 1 MRI Control Room Sys-3 Flr-3 Sch-H HPlcmt-north ZN NECB System 3 PSZ\n   ************* Only last 3 lines before error line shown.....\n   *************  53473   Sp-Floor 1 MRI Control Room Sys-3 Flr-3 Sch-H HPlcmt-north ZN NECB System 3 PSZ, !- Name\n   *************  53474   ,                                       !- Controller List Name\n   *************  53475   Sp-Floor 1 MRI Control Room Sys-3 Flr-3 Sch-H HPlcmt-north ZN NECB System 3 PSZAvailability Manager List, !- Availability Manager List Name\n   ** Warning ** IP: IDF line~53475 Alpha Argument length exceeds maximum, will be truncated=  Sp-Floor 1 MRI Control Room Sys-3 Flr-3 Sch-H HPlcmt-north ZN NECB System 3 PSZAvailability Manager Lis\n   **   ~~~   ** Will be processed as Alpha=SP-FLOOR 1 MRI CONTROL ROOM SYS-3 FLR-3 SCH-H HPLCMT-NORTH ZN NECB SYSTEM 3 PSZAVAILABILITY MANAGER LIST\n   ************* IDF Context for following error/warning message:\n   ************* Note -- lines truncated at 300 characters, if necessary...\n   *************  53531 AvailabilityManagerAssignmentList,\n   ************* indicated Name=Sp-Floor 1 MRI Control Room Sys-3 Flr-3 Sch-H HPlcmt-north ZN NECB System 3 PSZAvailability Manager List\n   ************* Only last 1 lines before error line shown.....\n   *************  53532   Sp-Floor 1 MRI Control Room Sys-3 Flr-3 Sch-H HPlcmt-north ZN NECB System 3 PSZAvailability Manager List, !- Name\n   ** Warning ** IP: IDF line~53532 Alpha Argument length exceeds maximum, will be truncated=  Sp-Floor 1 MRI Control Room Sys-3 Flr-3 Sch-H HPlcmt-north ZN NECB System 3 PSZAvailability Manager Lis\n   **   ~~~   ** Will be processed as Alpha=SP-FLOOR 1 MRI CONTROL ROOM SYS-3 FLR-3 SCH-H HPLCMT-NORTH ZN NECB SYSTEM 3 PSZAVAILABILITY MANAGER LIST\n   ************* IDF Context for following error/warning message:\n   ************* Note -- lines truncated at 300 characters, if necessary...\n   *************  56080 AirLoopHVAC,\n   ************* indicated Name=Sp-Floor 1 Operating Room 1 Sys-3 Flr-3 Sch-H HPlcmt-east ZN NECB System 3 PSZ\n   ************* Only last 3 lines before error line shown.....\n   *************  56081   Sp-Floor 1 Operating Room 1 Sys-3 Flr-3 Sch-H HPlcmt-east ZN NECB System 3 PSZ, !- Name\n   *************  56082   ,                                       !- Controller List Name\n   *************  56083   Sp-Floor 1 Operating Room 1 Sys-3 Flr-3 Sch-H HPlcmt-east ZN NECB System 3 PSZAvailability Manager List, !- Availability Manager List Name\n   ** Warning ** IP: IDF line~56083 Alpha Argument length exceeds maximum, will be truncated=  Sp-Floor 1 Operating Room 1 Sys-3 Flr-3 Sch-H HPlcmt-east ZN NECB System 3 PSZAvailability Manager Lis\n   **   ~~~   ** Will be processed as Alpha=SP-FLOOR 1 OPERATING ROOM 1 SYS-3 FLR-3 SCH-H HPLCMT-EAST ZN NECB SYSTEM 3 PSZAVAILABILITY MANAGER LIST\n   ************* IDF Context for following error/warning message:\n   ************* Note -- lines truncated at 300 characters, if necessary...\n   *************  56139 AvailabilityManagerAssignmentList,\n   ************* indicated Name=Sp-Floor 1 Operating Room 1 Sys-3 Flr-3 Sch-H HPlcmt-east ZN NECB System 3 PSZAvailability Manager List\n   ************* Only last 1 lines before error line shown.....\n   *************  56140   Sp-Floor 1 Operating Room 1 Sys-3 Flr-3 Sch-H HPlcmt-east ZN NECB System 3 PSZAvailability Manager List, !- Name\n   ** Warning ** IP: IDF line~56140 Alpha Argument length exceeds maximum, will be truncated=  Sp-Floor 1 Operating Room 1 Sys-3 Flr-3 Sch-H HPlcmt-east ZN NECB System 3 PSZAvailability Manager Lis\n   **   ~~~   ** Will be processed as Alpha=SP-FLOOR 1 OPERATING ROOM 1 SYS-3 FLR-3 SCH-H HPLCMT-EAST ZN NECB SYSTEM 3 PSZAVAILABILITY MANAGER LIST\n   ************* IDF Context for following error/warning message:\n   ************* Note -- lines truncated at 300 characters, if necessary...\n   *************  56406 AirLoopHVAC,\n   ************* indicated Name=Sp-Floor 1 Operating Room 2 Sys-3 Flr-3 Sch-H HPlcmt-east ZN NECB System 3 PSZ\n   ************* Only last 3 lines before error line shown.....\n   *************  56407   Sp-Floor 1 Operating Room 2 Sys-3 Flr-3 Sch-H HPlcmt-east ZN NECB System 3 PSZ, !- Name\n   *************  56408   ,                                       !- Controller List Name\n   *************  56409   Sp-Floor 1 Operating Room 2 Sys-3 Flr-3 Sch-H HPlcmt-east ZN NECB System 3 PSZAvailability Manager List, !- Availability Manager List Name\n   ** Warning ** IP: IDF line~56409 Alpha Argument length exceeds maximum, will be truncated=  Sp-Floor 1 Operating Room 2 Sys-3 Flr-3 Sch-H HPlcmt-east ZN NECB System 3 PSZAvailability Manager Lis\n   **   ~~~   ** Will be processed as Alpha=SP-FLOOR 1 OPERATING ROOM 2 SYS-3 FLR-3 SCH-H HPLCMT-EAST ZN NECB SYSTEM 3 PSZAVAILABILITY MANAGER LIST\n   ************* IDF Context for following error/warning message:\n   ************* Note -- lines truncated at 300 characters, if necessary...\n   *************  56465 AvailabilityManagerAssignmentList,\n   ************* indicated Name=Sp-Floor 1 Operating Room 2 Sys-3 Flr-3 Sch-H HPlcmt-east ZN NECB System 3 PSZAvailability Manager List\n   ************* Only last 1 lines before error line shown.....\n   *************  56466   Sp-Floor 1 Operating Room 2 Sys-3 Flr-3 Sch-H HPlcmt-east ZN NECB System 3 PSZAvailability Manager List, !- Name\n   ** Warning ** IP: IDF line~56466 Alpha Argument length exceeds maximum, will be truncated=  Sp-Floor 1 Operating Room 2 Sys-3 Flr-3 Sch-H HPlcmt-east ZN NECB System 3 PSZAvailability Manager Lis\n   **   ~~~   ** Will be processed as Alpha=SP-FLOOR 1 OPERATING ROOM 2 SYS-3 FLR-3 SCH-H HPLCMT-EAST ZN NECB SYSTEM 3 PSZAVAILABILITY MANAGER LIST\n   ************* IDF Context for following error/warning message:\n   ************* Note -- lines truncated at 300 characters, if necessary...\n   *************  56732 AirLoopHVAC,\n   ************* indicated Name=Sp-Floor 1 Operating Room 3 Sys-3 Flr-3 Sch-H HPlcmt-core ZN NECB System 3 PSZ\n   ************* Only last 3 lines before error line shown.....\n   *************  56733   Sp-Floor 1 Operating Room 3 Sys-3 Flr-3 Sch-H HPlcmt-core ZN NECB System 3 PSZ, !- Name\n   *************  56734   ,                                       !- Controller List Name\n   *************  56735   Sp-Floor 1 Operating Room 3 Sys-3 Flr-3 Sch-H HPlcmt-core ZN NECB System 3 PSZAvailability Manager List, !- Availability Manager List Name\n   ** Warning ** IP: IDF line~56735 Alpha Argument length exceeds maximum, will be truncated=  Sp-Floor 1 Operating Room 3 Sys-3 Flr-3 Sch-H HPlcmt-core ZN NECB System 3 PSZAvailability Manager Lis\n   **   ~~~   ** Will be processed as Alpha=SP-FLOOR 1 OPERATING ROOM 3 SYS-3 FLR-3 SCH-H HPLCMT-CORE ZN NECB SYSTEM 3 PSZAVAILABILITY MANAGER LIST\n   ************* IDF Context for following error/warning message:\n   ************* Note -- lines truncated at 300 characters, if necessary...\n   *************  56791 AvailabilityManagerAssignmentList,\n   ************* indicated Name=Sp-Floor 1 Operating Room 3 Sys-3 Flr-3 Sch-H HPlcmt-core ZN NECB System 3 PSZAvailability Manager List\n   ************* Only last 1 lines before error line shown.....\n   *************  56792   Sp-Floor 1 Operating Room 3 Sys-3 Flr-3 Sch-H HPlcmt-core ZN NECB System 3 PSZAvailability Manager List, !- Name\n   ** Warning ** IP: IDF line~56792 Alpha Argument length exceeds maximum, will be truncated=  Sp-Floor 1 Operating Room 3 Sys-3 Flr-3 Sch-H HPlcmt-core ZN NECB System 3 PSZAvailability Manager Lis\n   **   ~~~   ** Will be processed as Alpha=SP-FLOOR 1 OPERATING ROOM 3 SYS-3 FLR-3 SCH-H HPLCMT-CORE ZN NECB SYSTEM 3 PSZAVAILABILITY MANAGER LIST\n   ************* IDF Context for following error/warning message:\n   ************* Note -- lines truncated at 300 characters, if necessary...\n   *************  58362 AirLoopHVAC,\n   ************* indicated Name=Sp-Floor 1 Procedure Room Sys-3 Flr-3 Sch-H HPlcmt-north ZN NECB System 3 PSZ\n   ************* Only last 3 lines before error line shown.....\n   *************  58363   Sp-Floor 1 Procedure Room Sys-3 Flr-3 Sch-H HPlcmt-north ZN NECB System 3 PSZ, !- Name\n   *************  58364   ,                                       !- Controller List Name\n   *************  58365   Sp-Floor 1 Procedure Room Sys-3 Flr-3 Sch-H HPlcmt-north ZN NECB System 3 PSZAvailability Manager List, !- Availability Manager List Name\n   ** Warning ** IP: IDF line~58365 Alpha Argument length exceeds maximum, will be truncated=  Sp-Floor 1 Procedure Room Sys-3 Flr-3 Sch-H HPlcmt-north ZN NECB System 3 PSZAvailability Manager Lis\n   **   ~~~   ** Will be processed as Alpha=SP-FLOOR 1 PROCEDURE ROOM SYS-3 FLR-3 SCH-H HPLCMT-NORTH ZN NECB SYSTEM 3 PSZAVAILABILITY MANAGER LIST\n   ************* IDF Context for following error/warning message:\n   ************* Note -- lines truncated at 300 characters, if necessary...\n   *************  58421 AvailabilityManagerAssignmentList,\n   ************* indicated Name=Sp-Floor 1 Procedure Room Sys-3 Flr-3 Sch-H HPlcmt-north ZN NECB System 3 PSZAvailability Manager List\n   ************* Only last 1 lines before error line shown.....\n   *************  58422   Sp-Floor 1 Procedure Room Sys-3 Flr-3 Sch-H HPlcmt-north ZN NECB System 3 PSZAvailability Manager List, !- Name\n   ** Warning ** IP: IDF line~58422 Alpha Argument length exceeds maximum, will be truncated=  Sp-Floor 1 Procedure Room Sys-3 Flr-3 Sch-H HPlcmt-north ZN NECB System 3 PSZAvailability Manager Lis\n   **   ~~~   ** Will be processed as Alpha=SP-FLOOR 1 PROCEDURE ROOM SYS-3 FLR-3 SCH-H HPLCMT-NORTH ZN NECB SYSTEM 3 PSZAVAILABILITY MANAGER LIST\n   ************* IDF Context for following error/warning message:\n   ************* Note -- lines truncated at 300 characters, if necessary...\n   *************  59014 AirLoopHVAC,\n   ************* indicated Name=Sp-Floor 1 Recovery Room Sys-3 Flr-3 Sch-H HPlcmt-south ZN NECB System 3 PSZ\n   ************* Only last 3 lines before error line shown.....\n   *************  59015   Sp-Floor 1 Recovery Room Sys-3 Flr-3 Sch-H HPlcmt-south ZN NECB System 3 PSZ, !- Name\n   *************  59016   ,                                       !- Controller List Name\n   *************  59017   Sp-Floor 1 Recovery Room Sys-3 Flr-3 Sch-H HPlcmt-south ZN NECB System 3 PSZAvailability Manager List, !- Availability Manager List Name\n   ** Warning ** IP: IDF line~59017 Alpha Argument length exceeds maximum, will be truncated=  Sp-Floor 1 Recovery Room Sys-3 Flr-3 Sch-H HPlcmt-south ZN NECB System 3 PSZAvailability Manager Lis\n   **   ~~~   ** Will be processed as Alpha=SP-FLOOR 1 RECOVERY ROOM SYS-3 FLR-3 SCH-H HPLCMT-SOUTH ZN NECB SYSTEM 3 PSZAVAILABILITY MANAGER LIST\n   ************* IDF Context for following error/warning message:\n   ************* Note -- lines truncated at 300 characters, if necessary...\n   *************  59073 AvailabilityManagerAssignmentList,\n   ************* indicated Name=Sp-Floor 1 Recovery Room Sys-3 Flr-3 Sch-H HPlcmt-south ZN NECB System 3 PSZAvailability Manager List\n   ************* Only last 1 lines before error line shown.....\n   *************  59074   Sp-Floor 1 Recovery Room Sys-3 Flr-3 Sch-H HPlcmt-south ZN NECB System 3 PSZAvailability Manager List, !- Name\n   ** Warning ** IP: IDF line~59074 Alpha Argument length exceeds maximum, will be truncated=  Sp-Floor 1 Recovery Room Sys-3 Flr-3 Sch-H HPlcmt-south ZN NECB System 3 PSZAvailability Manager Lis\n   **   ~~~   ** Will be processed as Alpha=SP-FLOOR 1 RECOVERY ROOM SYS-3 FLR-3 SCH-H HPLCMT-SOUTH ZN NECB SYSTEM 3 PSZAVAILABILITY MANAGER LIST\n   ************* IDF Context for following error/warning message:\n   ************* Note -- lines truncated at 300 characters, if necessary...\n   *************  61296 AirLoopHVAC,\n   ************* indicated Name=Sp-Floor 1 Sterile Storage Sys-4 Flr-3 Sch-E HPlcmt-core ZN NECB System 4 PSZ\n   ************* Only last 3 lines before error line shown.....\n   *************  61297   Sp-Floor 1 Sterile Storage Sys-4 Flr-3 Sch-E HPlcmt-core ZN NECB System 4 PSZ, !- Name\n   *************  61298   ,                                       !- Controller List Name\n   *************  61299   Sp-Floor 1 Sterile Storage Sys-4 Flr-3 Sch-E HPlcmt-core ZN NECB System 4 PSZAvailability Manager List, !- Availability Manager List Name\n   ** Warning ** IP: IDF line~61299 Alpha Argument length exceeds maximum, will be truncated=  Sp-Floor 1 Sterile Storage Sys-4 Flr-3 Sch-E HPlcmt-core ZN NECB System 4 PSZAvailability Manager Lis\n   **   ~~~   ** Will be processed as Alpha=SP-FLOOR 1 STERILE STORAGE SYS-4 FLR-3 SCH-E HPLCMT-CORE ZN NECB SYSTEM 4 PSZAVAILABILITY MANAGER LIST\n   ************* IDF Context for following error/warning message:\n   ************* Note -- lines truncated at 300 characters, if necessary...\n   *************  61355 AvailabilityManagerAssignmentList,\n   ************* indicated Name=Sp-Floor 1 Sterile Storage Sys-4 Flr-3 Sch-E HPlcmt-core ZN NECB System 4 PSZAvailability Manager List\n   ************* Only last 1 lines before error line shown.....\n   *************  61356   Sp-Floor 1 Sterile Storage Sys-4 Flr-3 Sch-E HPlcmt-core ZN NECB System 4 PSZAvailability Manager List, !- Name\n   ** Warning ** IP: IDF line~61356 Alpha Argument length exceeds maximum, will be truncated=  Sp-Floor 1 Sterile Storage Sys-4 Flr-3 Sch-E HPlcmt-core ZN NECB System 4 PSZAvailability Manager Lis\n   **   ~~~   ** Will be processed as Alpha=SP-FLOOR 1 STERILE STORAGE SYS-4 FLR-3 SCH-E HPLCMT-CORE ZN NECB SYSTEM 4 PSZAVAILABILITY MANAGER LIST\n   ************* IDF Context for following error/warning message:\n   ************* Note -- lines truncated at 300 characters, if necessary...\n   *************  62600 AirLoopHVAC,\n   ************* indicated Name=Sp-Floor 1 Utility Janitor Sys-4 Flr-3 Sch-E HPlcmt-core ZN NECB System 4 PSZ\n   ************* Only last 3 lines before error line shown.....\n   *************  62601   Sp-Floor 1 Utility Janitor Sys-4 Flr-3 Sch-E HPlcmt-core ZN NECB System 4 PSZ, !- Name\n   *************  62602   ,                                       !- Controller List Name\n   *************  62603   Sp-Floor 1 Utility Janitor Sys-4 Flr-3 Sch-E HPlcmt-core ZN NECB System 4 PSZAvailability Manager List, !- Availability Manager List Name\n   ** Warning ** IP: IDF line~62603 Alpha Argument length exceeds maximum, will be truncated=  Sp-Floor 1 Utility Janitor Sys-4 Flr-3 Sch-E HPlcmt-core ZN NECB System 4 PSZAvailability Manager Lis\n   **   ~~~   ** Will be processed as Alpha=SP-FLOOR 1 UTILITY JANITOR SYS-4 FLR-3 SCH-E HPLCMT-CORE ZN NECB SYSTEM 4 PSZAVAILABILITY MANAGER LIST\n   ************* IDF Context for following error/warning message:\n   ************* Note -- lines truncated at 300 characters, if necessary...\n   *************  62659 AvailabilityManagerAssignmentList,\n   ************* indicated Name=Sp-Floor 1 Utility Janitor Sys-4 Flr-3 Sch-E HPlcmt-core ZN NECB System 4 PSZAvailability Manager List\n   ************* Only last 1 lines before error line shown.....\n   *************  62660   Sp-Floor 1 Utility Janitor Sys-4 Flr-3 Sch-E HPlcmt-core ZN NECB System 4 PSZAvailability Manager List, !- Name\n   ** Warning ** IP: IDF line~62660 Alpha Argument length exceeds maximum, will be truncated=  Sp-Floor 1 Utility Janitor Sys-4 Flr-3 Sch-E HPlcmt-core ZN NECB System 4 PSZAvailability Manager Lis\n   **   ~~~   ** Will be processed as Alpha=SP-FLOOR 1 UTILITY JANITOR SYS-4 FLR-3 SCH-E HPLCMT-CORE ZN NECB SYSTEM 4 PSZAVAILABILITY MANAGER LIST\n   ************* IDF Context for following error/warning message:\n   ************* Note -- lines truncated at 300 characters, if necessary...\n   *************  63904 AirLoopHVAC,\n   ************* indicated Name=Sp-Floor 2 Conference Toilet Sys-3 Flr-1 Sch-H HPlcmt-core ZN NECB System 3 PSZ\n   ************* Only last 3 lines before error line shown.....\n   *************  63905   Sp-Floor 2 Conference Toilet Sys-3 Flr-1 Sch-H HPlcmt-core ZN NECB System 3 PSZ, !- Name\n   *************  63906   ,                                       !- Controller List Name\n   *************  63907   Sp-Floor 2 Conference Toilet Sys-3 Flr-1 Sch-H HPlcmt-core ZN NECB System 3 PSZAvailability Manager List, !- Availability Manager List Name\n   ** Warning ** IP: IDF line~63907 Alpha Argument length exceeds maximum, will be truncated=  Sp-Floor 2 Conference Toilet Sys-3 Flr-1 Sch-H HPlcmt-core ZN NECB System 3 PSZAvailability Manager Lis\n   **   ~~~   ** Will be processed as Alpha=SP-FLOOR 2 CONFERENCE TOILET SYS-3 FLR-1 SCH-H HPLCMT-CORE ZN NECB SYSTEM 3 PSZAVAILABILITY MANAGER LIST\n   ************* IDF Context for following error/warning message:\n   ************* Note -- lines truncated at 300 characters, if necessary...\n   *************  63963 AvailabilityManagerAssignmentList,\n   ************* indicated Name=Sp-Floor 2 Conference Toilet Sys-3 Flr-1 Sch-H HPlcmt-core ZN NECB System 3 PSZAvailability Manager List\n   ************* Only last 1 lines before error line shown.....\n   *************  63964   Sp-Floor 2 Conference Toilet Sys-3 Flr-1 Sch-H HPlcmt-core ZN NECB System 3 PSZAvailability Manager List, !- Name\n   ** Warning ** IP: IDF line~63964 Alpha Argument length exceeds maximum, will be truncated=  Sp-Floor 2 Conference Toilet Sys-3 Flr-1 Sch-H HPlcmt-core ZN NECB System 3 PSZAvailability Manager Lis\n   **   ~~~   ** Will be processed as Alpha=SP-FLOOR 2 CONFERENCE TOILET SYS-3 FLR-1 SCH-H HPLCMT-CORE ZN NECB SYSTEM 3 PSZAVAILABILITY MANAGER LIST\n   ************* IDF Context for following error/warning message:\n   ************* Note -- lines truncated at 300 characters, if necessary...\n   *************  69772 AirLoopHVAC,\n   ************* indicated Name=Sp-Floor 2 Nurse Station 1 Sys-3 Flr-1 Sch-H HPlcmt-core ZN NECB System 3 PSZ\n   ************* Only last 3 lines before error line shown.....\n   *************  69773   Sp-Floor 2 Nurse Station 1 Sys-3 Flr-1 Sch-H HPlcmt-core ZN NECB System 3 PSZ, !- Name\n   *************  69774   ,                                       !- Controller List Name\n   *************  69775   Sp-Floor 2 Nurse Station 1 Sys-3 Flr-1 Sch-H HPlcmt-core ZN NECB System 3 PSZAvailability Manager List, !- Availability Manager List Name\n   ** Warning ** IP: IDF line~69775 Alpha Argument length exceeds maximum, will be truncated=  Sp-Floor 2 Nurse Station 1 Sys-3 Flr-1 Sch-H HPlcmt-core ZN NECB System 3 PSZAvailability Manager Lis\n   **   ~~~   ** Will be processed as Alpha=SP-FLOOR 2 NURSE STATION 1 SYS-3 FLR-1 SCH-H HPLCMT-CORE ZN NECB SYSTEM 3 PSZAVAILABILITY MANAGER LIST\n   ************* IDF Context for following error/warning message:\n   ************* Note -- lines truncated at 300 characters, if necessary...\n   *************  69831 AvailabilityManagerAssignmentList,\n   ************* indicated Name=Sp-Floor 2 Nurse Station 1 Sys-3 Flr-1 Sch-H HPlcmt-core ZN NECB System 3 PSZAvailability Manager List\n   ************* Only last 1 lines before error line shown.....\n   *************  69832   Sp-Floor 2 Nurse Station 1 Sys-3 Flr-1 Sch-H HPlcmt-core ZN NECB System 3 PSZAvailability Manager List, !- Name\n   ** Warning ** IP: IDF line~69832 Alpha Argument length exceeds maximum, will be truncated=  Sp-Floor 2 Nurse Station 1 Sys-3 Flr-1 Sch-H HPlcmt-core ZN NECB System 3 PSZAvailability Manager Lis\n   **   ~~~   ** Will be processed as Alpha=SP-FLOOR 2 NURSE STATION 1 SYS-3 FLR-1 SCH-H HPLCMT-CORE ZN NECB SYSTEM 3 PSZAVAILABILITY MANAGER LIST\n   ************* IDF Context for following error/warning message:\n   ************* Note -- lines truncated at 300 characters, if necessary...\n   *************  70098 AirLoopHVAC,\n   ************* indicated Name=Sp-Floor 2 Nurse Station 2 Sys-3 Flr-1 Sch-H HPlcmt-core ZN NECB System 3 PSZ\n   ************* Only last 3 lines before error line shown.....\n   *************  70099   Sp-Floor 2 Nurse Station 2 Sys-3 Flr-1 Sch-H HPlcmt-core ZN NECB System 3 PSZ, !- Name\n   *************  70100   ,                                       !- Controller List Name\n   *************  70101   Sp-Floor 2 Nurse Station 2 Sys-3 Flr-1 Sch-H HPlcmt-core ZN NECB System 3 PSZAvailability Manager List, !- Availability Manager List Name\n   ** Warning ** IP: IDF line~70101 Alpha Argument length exceeds maximum, will be truncated=  Sp-Floor 2 Nurse Station 2 Sys-3 Flr-1 Sch-H HPlcmt-core ZN NECB System 3 PSZAvailability Manager Lis\n   **   ~~~   ** Will be processed as Alpha=SP-FLOOR 2 NURSE STATION 2 SYS-3 FLR-1 SCH-H HPLCMT-CORE ZN NECB SYSTEM 3 PSZAVAILABILITY MANAGER LIST\n   ************* IDF Context for following error/warning message:\n   ************* Note -- lines truncated at 300 characters, if necessary...\n   *************  70157 AvailabilityManagerAssignmentList,\n   ************* indicated Name=Sp-Floor 2 Nurse Station 2 Sys-3 Flr-1 Sch-H HPlcmt-core ZN NECB System 3 PSZAvailability Manager List\n   ************* Only last 1 lines before error line shown.....\n   *************  70158   Sp-Floor 2 Nurse Station 2 Sys-3 Flr-1 Sch-H HPlcmt-core ZN NECB System 3 PSZAvailability Manager List, !- Name\n   ** Warning ** IP: IDF line~70158 Alpha Argument length exceeds maximum, will be truncated=  Sp-Floor 2 Nurse Station 2 Sys-3 Flr-1 Sch-H HPlcmt-core ZN NECB System 3 PSZAvailability Manager Lis\n   **   ~~~   ** Will be processed as Alpha=SP-FLOOR 2 NURSE STATION 2 SYS-3 FLR-1 SCH-H HPLCMT-CORE ZN NECB SYSTEM 3 PSZAVAILABILITY MANAGER LIST\n   ************* IDF Context for following error/warning message:\n   ************* Note -- lines truncated at 300 characters, if necessary...\n   *************  70424 AirLoopHVAC,\n   ************* indicated Name=Sp-Floor 2 Reception Hall Sys-3 Flr-1 Sch-H HPlcmt-south ZN NECB System 3 PSZ\n   ************* Only last 3 lines before error line shown.....\n   *************  70425   Sp-Floor 2 Reception Hall Sys-3 Flr-1 Sch-H HPlcmt-south ZN NECB System 3 PSZ, !- Name\n   *************  70426   ,                                       !- Controller List Name\n   *************  70427   Sp-Floor 2 Reception Hall Sys-3 Flr-1 Sch-H HPlcmt-south ZN NECB System 3 PSZAvailability Manager List, !- Availability Manager List Name\n   ** Warning ** IP: IDF line~70427 Alpha Argument length exceeds maximum, will be truncated=  Sp-Floor 2 Reception Hall Sys-3 Flr-1 Sch-H HPlcmt-south ZN NECB System 3 PSZAvailability Manager Lis\n   **   ~~~   ** Will be processed as Alpha=SP-FLOOR 2 RECEPTION HALL SYS-3 FLR-1 SCH-H HPLCMT-SOUTH ZN NECB SYSTEM 3 PSZAVAILABILITY MANAGER LIST\n   ************* IDF Context for following error/warning message:\n   ************* Note -- lines truncated at 300 characters, if necessary...\n   *************  70483 AvailabilityManagerAssignmentList,\n   ************* indicated Name=Sp-Floor 2 Reception Hall Sys-3 Flr-1 Sch-H HPlcmt-south ZN NECB System 3 PSZAvailability Manager List\n   ************* Only last 1 lines before error line shown.....\n   *************  70484   Sp-Floor 2 Reception Hall Sys-3 Flr-1 Sch-H HPlcmt-south ZN NECB System 3 PSZAvailability Manager List, !- Name\n   ** Warning ** IP: IDF line~70484 Alpha Argument length exceeds maximum, will be truncated=  Sp-Floor 2 Reception Hall Sys-3 Flr-1 Sch-H HPlcmt-south ZN NECB System 3 PSZAvailability Manager Lis\n   **   ~~~   ** Will be processed as Alpha=SP-FLOOR 2 RECEPTION HALL SYS-3 FLR-1 SCH-H HPLCMT-SOUTH ZN NECB SYSTEM 3 PSZAVAILABILITY MANAGER LIST\n   ************* IDF Context for following error/warning message:\n   ************* Note -- lines truncated at 300 characters, if necessary...\n   *************  71076 AirLoopHVAC,\n   ************* indicated Name=Sp-Floor 2 Reception Toilet Sys-3 Flr-1 Sch-H HPlcmt-core ZN NECB System 3 PSZ\n   ************* Only last 3 lines before error line shown.....\n   *************  71077   Sp-Floor 2 Reception Toilet Sys-3 Flr-1 Sch-H HPlcmt-core ZN NECB System 3 PSZ, !- Name\n   *************  71078   ,                                       !- Controller List Name\n   *************  71079   Sp-Floor 2 Reception Toilet Sys-3 Flr-1 Sch-H HPlcmt-core ZN NECB System 3 PSZAvailability Manager List, !- Availability Manager List Name\n   ** Warning ** IP: IDF line~71079 Alpha Argument length exceeds maximum, will be truncated=  Sp-Floor 2 Reception Toilet Sys-3 Flr-1 Sch-H HPlcmt-core ZN NECB System 3 PSZAvailability Manager Lis\n   **   ~~~   ** Will be processed as Alpha=SP-FLOOR 2 RECEPTION TOILET SYS-3 FLR-1 SCH-H HPLCMT-CORE ZN NECB SYSTEM 3 PSZAVAILABILITY MANAGER LIST\n   ************* IDF Context for following error/warning message:\n   ************* Note -- lines truncated at 300 characters, if necessary...\n   *************  71135 AvailabilityManagerAssignmentList,\n   ************* indicated Name=Sp-Floor 2 Reception Toilet Sys-3 Flr-1 Sch-H HPlcmt-core ZN NECB System 3 PSZAvailability Manager List\n   ************* Only last 1 lines before error line shown.....\n   *************  71136   Sp-Floor 2 Reception Toilet Sys-3 Flr-1 Sch-H HPlcmt-core ZN NECB System 3 PSZAvailability Manager List, !- Name\n   ** Warning ** IP: IDF line~71136 Alpha Argument length exceeds maximum, will be truncated=  Sp-Floor 2 Reception Toilet Sys-3 Flr-1 Sch-H HPlcmt-core ZN NECB System 3 PSZAvailability Manager Lis\n   **   ~~~   ** Will be processed as Alpha=SP-FLOOR 2 RECEPTION TOILET SYS-3 FLR-1 SCH-H HPLCMT-CORE ZN NECB SYSTEM 3 PSZAVAILABILITY MANAGER LIST\n   ************* IDF Context for following error/warning message:\n   ************* Note -- lines truncated at 300 characters, if necessary...\n   *************  74010 AirLoopHVAC,\n   ************* indicated Name=Sp-Floor 3 Mechanical Hall Sys-3 Flr-2 Sch-H HPlcmt-core ZN NECB System 3 PSZ\n   ************* Only last 3 lines before error line shown.....\n   *************  74011   Sp-Floor 3 Mechanical Hall Sys-3 Flr-2 Sch-H HPlcmt-core ZN NECB System 3 PSZ, !- Name\n   *************  74012   ,                                       !- Controller List Name\n   *************  74013   Sp-Floor 3 Mechanical Hall Sys-3 Flr-2 Sch-H HPlcmt-core ZN NECB System 3 PSZAvailability Manager List, !- Availability Manager List Name\n   ** Warning ** IP: IDF line~74013 Alpha Argument length exceeds maximum, will be truncated=  Sp-Floor 3 Mechanical Hall Sys-3 Flr-2 Sch-H HPlcmt-core ZN NECB System 3 PSZAvailability Manager Lis\n   **   ~~~   ** Will be processed as Alpha=SP-FLOOR 3 MECHANICAL HALL SYS-3 FLR-2 SCH-H HPLCMT-CORE ZN NECB SYSTEM 3 PSZAVAILABILITY MANAGER LIST\n   ************* IDF Context for following error/warning message:\n   ************* Note -- lines truncated at 300 characters, if necessary...\n   *************  74069 AvailabilityManagerAssignmentList,\n   ************* indicated Name=Sp-Floor 3 Mechanical Hall Sys-3 Flr-2 Sch-H HPlcmt-core ZN NECB System 3 PSZAvailability Manager List\n   ************* Only last 1 lines before error line shown.....\n   *************  74070   Sp-Floor 3 Mechanical Hall Sys-3 Flr-2 Sch-H HPlcmt-core ZN NECB System 3 PSZAvailability Manager List, !- Name\n   ** Warning ** IP: IDF line~74070 Alpha Argument length exceeds maximum, will be truncated=  Sp-Floor 3 Mechanical Hall Sys-3 Flr-2 Sch-H HPlcmt-core ZN NECB System 3 PSZAvailability Manager Lis\n   **   ~~~   ** Will be processed as Alpha=SP-FLOOR 3 MECHANICAL HALL SYS-3 FLR-2 SCH-H HPLCMT-CORE ZN NECB SYSTEM 3 PSZAVAILABILITY MANAGER LIST\n   ************* IDF Context for following error/warning message:\n   ************* Note -- lines truncated at 300 characters, if necessary...\n   *************  74988 AirLoopHVAC,\n   ************* indicated Name=Sp-Floor 3 Physical Therapy 1 Sys-3 Flr-2 Sch-C HPlcmt-south ZN NECB System 3 PSZ\n   ************* Only last 3 lines before error line shown.....\n   *************  74989   Sp-Floor 3 Physical Therapy 1 Sys-3 Flr-2 Sch-C HPlcmt-south ZN NECB System 3 PSZ, !- Name\n   *************  74990   ,                                       !- Controller List Name\n   *************  74991   Sp-Floor 3 Physical Therapy 1 Sys-3 Flr-2 Sch-C HPlcmt-south ZN NECB System 3 PSZAvailability Manager List, !- Availability Manager List Name\n   ** Warning ** IP: IDF line~74991 Alpha Argument length exceeds maximum, will be truncated=  Sp-Floor 3 Physical Therapy 1 Sys-3 Flr-2 Sch-C HPlcmt-south ZN NECB System 3 PSZAvailability Manager Lis\n   **   ~~~   ** Will be processed as Alpha=SP-FLOOR 3 PHYSICAL THERAPY 1 SYS-3 FLR-2 SCH-C HPLCMT-SOUTH ZN NECB SYSTEM 3 PSZAVAILABILITY MANAGER LIST\n   ************* IDF Context for following error/warning message:\n   ************* Note -- lines truncated at 300 characters, if necessary...\n   *************  74988 AirLoopHVAC,\n   ************* indicated Name=Sp-Floor 3 Physical Therapy 1 Sys-3 Flr-2 Sch-C HPlcmt-south ZN NECB System 3 PSZ\n   ************* Only last 10 lines before error line shown.....\n   *************  74989   Sp-Floor 3 Physical Therapy 1 Sys-3 Flr-2 Sch-C HPlcmt-south ZN NECB System 3 PSZ, !- Name\n   *************  74990   ,                                       !- Controller List Name\n   *************  74991   Sp-Floor 3 Physical Therapy 1 Sys-3 Flr-2 Sch-C HPlcmt-south ZN NECB System 3 PSZAvailability Manager List, !- Availability Manager List Name\n   *************  74992   AutoSize,                               !- Design Supply Air Flow Rate {m3/s}\n   *************  74993   Sp-Floor 3 Physical Therapy 1 Sys-3 Flr-2 Sch-C HPlcmt-south ZN NECB System 3 PSZ Supply Branches, !- Branch List Name\n   *************  74994   ,                                       !- Connector List Name\n   *************  74995   Node 443,                               !- Supply Side Inlet Node Name\n   *************  74996   Node 446,                               !- Demand Side Outlet Node Name\n   *************  74997   Sp-Floor 3 Physical Therapy 1 Sys-3 Flr-2 Sch-C HPlcmt-south ZN NECB System 3 PSZ Demand Inlet Nodes, !- Demand Side Inlet Node Names\n   *************  74998   Sp-Floor 3 Physical Therapy 1 Sys-3 Flr-2 Sch-C HPlcmt-south ZN NECB System 3 PSZ Supply Outlet Nodes; !- Supply Side Outlet Node Names\n   ** Warning ** IP: IDF line~74998 Alpha Argument length exceeds maximum, will be truncated=  Sp-Floor 3 Physical Therapy 1 Sys-3 Flr-2 Sch-C HPlcmt-south ZN NECB System 3 PSZ Supply Outlet Node\n   **   ~~~   ** Will be processed as Alpha=SP-FLOOR 3 PHYSICAL THERAPY 1 SYS-3 FLR-2 SCH-C HPLCMT-SOUTH ZN NECB SYSTEM 3 PSZ SUPPLY OUTLET NODES\n   ************* IDF Context for following error/warning message:\n   ************* Note -- lines truncated at 300 characters, if necessary...\n   *************  75000 NodeList,\n   ************* indicated Name=Sp-Floor 3 Physical Therapy 1 Sys-3 Flr-2 Sch-C HPlcmt-south ZN NECB System 3 PSZ Supply Outlet Nodes\n   ************* Only last 1 lines before error line shown.....\n   *************  75001   Sp-Floor 3 Physical Therapy 1 Sys-3 Flr-2 Sch-C HPlcmt-south ZN NECB System 3 PSZ Supply Outlet Nodes, !- Name\n   ** Warning ** IP: IDF line~75001 Alpha Argument length exceeds maximum, will be truncated=  Sp-Floor 3 Physical Therapy 1 Sys-3 Flr-2 Sch-C HPlcmt-south ZN NECB System 3 PSZ Supply Outlet Node\n   **   ~~~   ** Will be processed as Alpha=SP-FLOOR 3 PHYSICAL THERAPY 1 SYS-3 FLR-2 SCH-C HPLCMT-SOUTH ZN NECB SYSTEM 3 PSZ SUPPLY OUTLET NODES\n   ************* IDF Context for following error/warning message:\n   ************* Note -- lines truncated at 300 characters, if necessary...\n   *************  75047 AvailabilityManagerAssignmentList,\n   ************* indicated Name=Sp-Floor 3 Physical Therapy 1 Sys-3 Flr-2 Sch-C HPlcmt-south ZN NECB System 3 PSZAvailability Manager List\n   ************* Only last 1 lines before error line shown.....\n   *************  75048   Sp-Floor 3 Physical Therapy 1 Sys-3 Flr-2 Sch-C HPlcmt-south ZN NECB System 3 PSZAvailability Manager List, !- Name\n   ** Warning ** IP: IDF line~75048 Alpha Argument length exceeds maximum, will be truncated=  Sp-Floor 3 Physical Therapy 1 Sys-3 Flr-2 Sch-C HPlcmt-south ZN NECB System 3 PSZAvailability Manager Lis\n   **   ~~~   ** Will be processed as Alpha=SP-FLOOR 3 PHYSICAL THERAPY 1 SYS-3 FLR-2 SCH-C HPLCMT-SOUTH ZN NECB SYSTEM 3 PSZAVAILABILITY MANAGER LIST\n   ************* IDF Context for following error/warning message:\n   ************* Note -- lines truncated at 300 characters, if necessary...\n   *************  75296 AirLoopHVAC:SupplyPath,\n   ************* indicated Name=Sp-Floor 3 Physical Therapy 1 Sys-3 Flr-2 Sch-C HPlcmt-south ZN NECB System 3 PSZ Node 445 Supply Path\n   ************* Only last 1 lines before error line shown.....\n   *************  75297   Sp-Floor 3 Physical Therapy 1 Sys-3 Flr-2 Sch-C HPlcmt-south ZN NECB System 3 PSZ Node 445 Supply Path, !- Name\n   ** Warning ** IP: IDF line~75297 Alpha Argument length exceeds maximum, will be truncated=  Sp-Floor 3 Physical Therapy 1 Sys-3 Flr-2 Sch-C HPlcmt-south ZN NECB System 3 PSZ Node 445 Supply Pat\n   **   ~~~   ** Will be processed as Alpha=SP-FLOOR 3 PHYSICAL THERAPY 1 SYS-3 FLR-2 SCH-C HPLCMT-SOUTH ZN NECB SYSTEM 3 PSZ NODE 445 SUPPLY PATH\n   ************* IDF Context for following error/warning message:\n   ************* Note -- lines truncated at 300 characters, if necessary...\n   *************  75318 AirLoopHVAC,\n   ************* indicated Name=Sp-Floor 3 Physical Therapy 2 Sys-3 Flr-2 Sch-C HPlcmt-core ZN NECB System 3 PSZ\n   ************* Only last 3 lines before error line shown.....\n   *************  75319   Sp-Floor 3 Physical Therapy 2 Sys-3 Flr-2 Sch-C HPlcmt-core ZN NECB System 3 PSZ, !- Name\n   *************  75320   ,                                       !- Controller List Name\n   *************  75321   Sp-Floor 3 Physical Therapy 2 Sys-3 Flr-2 Sch-C HPlcmt-core ZN NECB System 3 PSZAvailability Manager List, !- Availability Manager List Name\n   ** Warning ** IP: IDF line~75321 Alpha Argument length exceeds maximum, will be truncated=  Sp-Floor 3 Physical Therapy 2 Sys-3 Flr-2 Sch-C HPlcmt-core ZN NECB System 3 PSZAvailability Manager Lis\n   **   ~~~   ** Will be processed as Alpha=SP-FLOOR 3 PHYSICAL THERAPY 2 SYS-3 FLR-2 SCH-C HPLCMT-CORE ZN NECB SYSTEM 3 PSZAVAILABILITY MANAGER LIST\n   ************* IDF Context for following error/warning message:\n   ************* Note -- lines truncated at 300 characters, if necessary...\n   *************  75377 AvailabilityManagerAssignmentList,\n   ************* indicated Name=Sp-Floor 3 Physical Therapy 2 Sys-3 Flr-2 Sch-C HPlcmt-core ZN NECB System 3 PSZAvailability Manager List\n   ************* Only last 1 lines before error line shown.....\n   *************  75378   Sp-Floor 3 Physical Therapy 2 Sys-3 Flr-2 Sch-C HPlcmt-core ZN NECB System 3 PSZAvailability Manager List, !- Name\n   ** Warning ** IP: IDF line~75378 Alpha Argument length exceeds maximum, will be truncated=  Sp-Floor 3 Physical Therapy 2 Sys-3 Flr-2 Sch-C HPlcmt-core ZN NECB System 3 PSZAvailability Manager Lis\n   **   ~~~   ** Will be processed as Alpha=SP-FLOOR 3 PHYSICAL THERAPY 2 SYS-3 FLR-2 SCH-C HPLCMT-CORE ZN NECB SYSTEM 3 PSZAVAILABILITY MANAGER LIST\n   ************* IDF Context for following error/warning message:\n   ************* Note -- lines truncated at 300 characters, if necessary...\n   *************  75377 AvailabilityManagerAssignmentList,\n   ************* indicated Name=Sp-Floor 3 Physical Therapy 2 Sys-3 Flr-2 Sch-C HPlcmt-core ZN NECB System 3 PSZAvailability Manager List\n   ************* Only last 3 lines before error line shown.....\n   *************  75378   Sp-Floor 3 Physical Therapy 2 Sys-3 Flr-2 Sch-C HPlcmt-core ZN NECB System 3 PSZAvailability Manager List, !- Name\n   *************  75379   AvailabilityManager:Scheduled,          !- Availability Manager Object Type 1\n   *************  75380   Sp-Floor 3 Physical Therapy 2 Sys-3 Flr-2 Sch-C HPlcmt-core ZN NECB System 3 PSZ Availability Manager; !- Availability Manager Name 1\n   ** Warning ** IP: IDF line~75380 Alpha Argument length exceeds maximum, will be truncated=  Sp-Floor 3 Physical Therapy 2 Sys-3 Flr-2 Sch-C HPlcmt-core ZN NECB System 3 PSZ Availability Manage\n   **   ~~~   ** Will be processed as Alpha=SP-FLOOR 3 PHYSICAL THERAPY 2 SYS-3 FLR-2 SCH-C HPLCMT-CORE ZN NECB SYSTEM 3 PSZ AVAILABILITY MANAGER\n   ************* IDF Context for following error/warning message:\n   ************* Note -- lines truncated at 300 characters, if necessary...\n   *************  75382 AvailabilityManager:Scheduled,\n   ************* indicated Name=Sp-Floor 3 Physical Therapy 2 Sys-3 Flr-2 Sch-C HPlcmt-core ZN NECB System 3 PSZ Availability Manager\n   ************* Only last 1 lines before error line shown.....\n   *************  75383   Sp-Floor 3 Physical Therapy 2 Sys-3 Flr-2 Sch-C HPlcmt-core ZN NECB System 3 PSZ Availability Manager, !- Name\n   ** Warning ** IP: IDF line~75383 Alpha Argument length exceeds maximum, will be truncated=  Sp-Floor 3 Physical Therapy 2 Sys-3 Flr-2 Sch-C HPlcmt-core ZN NECB System 3 PSZ Availability Manage\n   **   ~~~   ** Will be processed as Alpha=SP-FLOOR 3 PHYSICAL THERAPY 2 SYS-3 FLR-2 SCH-C HPLCMT-CORE ZN NECB SYSTEM 3 PSZ AVAILABILITY MANAGER\n   ************* IDF Context for following error/warning message:\n   ************* Note -- lines truncated at 300 characters, if necessary...\n   *************  75622 AirLoopHVAC:SupplyPath,\n   ************* indicated Name=Sp-Floor 3 Physical Therapy 2 Sys-3 Flr-2 Sch-C HPlcmt-core ZN NECB System 3 PSZ Node 458 Supply Path\n   ************* Only last 1 lines before error line shown.....\n   *************  75623   Sp-Floor 3 Physical Therapy 2 Sys-3 Flr-2 Sch-C HPlcmt-core ZN NECB System 3 PSZ Node 458 Supply Path, !- Name\n   ** Warning ** IP: IDF line~75623 Alpha Argument length exceeds maximum, will be truncated=  Sp-Floor 3 Physical Therapy 2 Sys-3 Flr-2 Sch-C HPlcmt-core ZN NECB System 3 PSZ Node 458 Supply Pat\n   **   ~~~   ** Will be processed as Alpha=SP-FLOOR 3 PHYSICAL THERAPY 2 SYS-3 FLR-2 SCH-C HPLCMT-CORE ZN NECB SYSTEM 3 PSZ NODE 458 SUPPLY PATH\n   ************* IDF Context for following error/warning message:\n   ************* Note -- lines truncated at 300 characters, if necessary...\n   *************  76622 AirLoopHVAC,\n   ************* indicated Name=Sp-Floor 3 Undeveloped 1 Sys-4 Flr-2 Sch-E HPlcmt-south ZN NECB System 4 PSZ\n   ************* Only last 3 lines before error line shown.....\n   *************  76623   Sp-Floor 3 Undeveloped 1 Sys-4 Flr-2 Sch-E HPlcmt-south ZN NECB System 4 PSZ, !- Name\n   *************  76624   ,                                       !- Controller List Name\n   *************  76625   Sp-Floor 3 Undeveloped 1 Sys-4 Flr-2 Sch-E HPlcmt-south ZN NECB System 4 PSZAvailability Manager List, !- Availability Manager List Name\n   ** Warning ** IP: IDF line~76625 Alpha Argument length exceeds maximum, will be truncated=  Sp-Floor 3 Undeveloped 1 Sys-4 Flr-2 Sch-E HPlcmt-south ZN NECB System 4 PSZAvailability Manager Lis\n   **   ~~~   ** Will be processed as Alpha=SP-FLOOR 3 UNDEVELOPED 1 SYS-4 FLR-2 SCH-E HPLCMT-SOUTH ZN NECB SYSTEM 4 PSZAVAILABILITY MANAGER LIST\n   ************* IDF Context for following error/warning message:\n   ************* Note -- lines truncated at 300 characters, if necessary...\n   *************  76681 AvailabilityManagerAssignmentList,\n   ************* indicated Name=Sp-Floor 3 Undeveloped 1 Sys-4 Flr-2 Sch-E HPlcmt-south ZN NECB System 4 PSZAvailability Manager List\n   ************* Only last 1 lines before error line shown.....\n   *************  76682   Sp-Floor 3 Undeveloped 1 Sys-4 Flr-2 Sch-E HPlcmt-south ZN NECB System 4 PSZAvailability Manager List, !- Name\n   ** Warning ** IP: IDF line~76682 Alpha Argument length exceeds maximum, will be truncated=  Sp-Floor 3 Undeveloped 1 Sys-4 Flr-2 Sch-E HPlcmt-south ZN NECB System 4 PSZAvailability Manager Lis\n   **   ~~~   ** Will be processed as Alpha=SP-FLOOR 3 UNDEVELOPED 1 SYS-4 FLR-2 SCH-E HPLCMT-SOUTH ZN NECB SYSTEM 4 PSZAVAILABILITY MANAGER LIST\n   ************* IDF Context for following error/warning message:\n   ************* Note -- lines truncated at 300 characters, if necessary...\n   *************  76952 AirLoopHVAC,\n   ************* indicated Name=Sp-Floor 3 Undeveloped 2 Sys-4 Flr-2 Sch-E HPlcmt-south ZN NECB System 4 PSZ\n   ************* Only last 3 lines before error line shown.....\n   *************  76953   Sp-Floor 3 Undeveloped 2 Sys-4 Flr-2 Sch-E HPlcmt-south ZN NECB System 4 PSZ, !- Name\n   *************  76954   ,                                       !- Controller List Name\n   *************  76955   Sp-Floor 3 Undeveloped 2 Sys-4 Flr-2 Sch-E HPlcmt-south ZN NECB System 4 PSZAvailability Manager List, !- Availability Manager List Name\n   ** Warning ** IP: IDF line~76955 Alpha Argument length exceeds maximum, will be truncated=  Sp-Floor 3 Undeveloped 2 Sys-4 Flr-2 Sch-E HPlcmt-south ZN NECB System 4 PSZAvailability Manager Lis\n   **   ~~~   ** Will be processed as Alpha=SP-FLOOR 3 UNDEVELOPED 2 SYS-4 FLR-2 SCH-E HPLCMT-SOUTH ZN NECB SYSTEM 4 PSZAVAILABILITY MANAGER LIST\n   ************* IDF Context for following error/warning message:\n   ************* Note -- lines truncated at 300 characters, if necessary...\n   *************  77011 AvailabilityManagerAssignmentList,\n   ************* indicated Name=Sp-Floor 3 Undeveloped 2 Sys-4 Flr-2 Sch-E HPlcmt-south ZN NECB System 4 PSZAvailability Manager List\n   ************* Only last 1 lines before error line shown.....\n   *************  77012   Sp-Floor 3 Undeveloped 2 Sys-4 Flr-2 Sch-E HPlcmt-south ZN NECB System 4 PSZAvailability Manager List, !- Name\n   ** Warning ** IP: IDF line~77012 Alpha Argument length exceeds maximum, will be truncated=  Sp-Floor 3 Undeveloped 2 Sys-4 Flr-2 Sch-E HPlcmt-south ZN NECB System 4 PSZAvailability Manager Lis\n   **   ~~~   ** Will be processed as Alpha=SP-FLOOR 3 UNDEVELOPED 2 SYS-4 FLR-2 SCH-E HPLCMT-SOUTH ZN NECB SYSTEM 4 PSZAVAILABILITY MANAGER LIST\n   ************* Beginning Zone Sizing Calculations\n   ** Warning ** ProcessScheduleInput: Schedule:Day:Interval=\"ECONOMIZER MAX OA FRACTION 100 PCT DEFAULT\", Blank Schedule Type Limits Name input -- will not be validated.\n   ** Warning ** ProcessScheduleInput: Schedule:Day:Interval=\"SCHEDULE DAY 1\", Blank Schedule Type Limits Name input -- will not be validated.\n   ** Warning ** ProcessScheduleInput: Schedule:Day:Interval=\"SCHEDULE DAY 10\", Blank Schedule Type Limits Name input -- will not be validated.\n   ** Warning ** ProcessScheduleInput: Schedule:Day:Interval=\"SCHEDULE DAY 100\", Blank Schedule Type Limits Name input -- will not be validated.\n   ** Warning ** ProcessScheduleInput: Schedule:Day:Interval=\"SCHEDULE DAY 101\", Blank Schedule Type Limits Name input -- will not be validated.\n   ** Warning ** ProcessScheduleInput: Schedule:Day:Interval=\"SCHEDULE DAY 102\", Blank Schedule Type Limits Name input -- will not be validated.\n   ** Warning ** ProcessScheduleInput: Schedule:Day:Interval=\"SCHEDULE DAY 103\", Blank Schedule Type Limits Name input -- will not be validated.\n   ** Warning ** ProcessScheduleInput: Schedule:Day:Interval=\"SCHEDULE DAY 104\", Blank Schedule Type Limits Name input -- will not be validated.\n   ** Warning ** ProcessScheduleInput: Schedule:Day:Interval=\"SCHEDULE DAY 105\", Blank Schedule Type Limits Name input -- will not be validated.\n   ** Warning ** ProcessScheduleInput: Schedule:Day:Interval=\"SCHEDULE DAY 106\", Blank Schedule Type Limits Name input -- will not be validated.\n   ** Warning ** ProcessScheduleInput: Schedule:Day:Interval=\"SCHEDULE DAY 107\", Blank Schedule Type Limits Name input -- will not be validated.\n   ** Warning ** ProcessScheduleInput: Schedule:Day:Interval=\"SCHEDULE DAY 108\", Blank Schedule Type Limits Name input -- will not be validated.\n   ** Warning ** ProcessScheduleInput: Schedule:Day:Interval=\"SCHEDULE DAY 109\", Blank Schedule Type Limits Name input -- will not be validated.\n   ** Warning ** ProcessScheduleInput: Schedule:Day:Interval=\"SCHEDULE DAY 11\", Blank Schedule Type Limits Name input -- will not be validated.\n   ** Warning ** ProcessScheduleInput: Schedule:Day:Interval=\"SCHEDULE DAY 110\", Blank Schedule Type Limits Name input -- will not be validated.\n   ** Warning ** ProcessScheduleInput: Schedule:Day:Interval=\"SCHEDULE DAY 111\", Blank Schedule Type Limits Name input -- will not be validated.\n   ** Warning ** ProcessScheduleInput: Schedule:Day:Interval=\"SCHEDULE DAY 112\", Blank Schedule Type Limits Name input -- will not be validated.\n   ** Warning ** ProcessScheduleInput: Schedule:Day:Interval=\"SCHEDULE DAY 113\", Blank Schedule Type Limits Name input -- will not be validated.\n   ** Warning ** ProcessScheduleInput: Schedule:Day:Interval=\"SCHEDULE DAY 114\", Blank Schedule Type Limits Name input -- will not be validated.\n   ** Warning ** ProcessScheduleInput: Schedule:Day:Interval=\"SCHEDULE DAY 115\", Blank Schedule Type Limits Name input -- will not be validated.\n   ** Warning ** ProcessScheduleInput: Schedule:Day:Interval=\"SCHEDULE DAY 116\", Blank Schedule Type Limits Name input -- will not be validated.\n   ** Warning ** ProcessScheduleInput: Schedule:Day:Interval=\"SCHEDULE DAY 117\", Blank Schedule Type Limits Name input -- will not be validated.\n   ** Warning ** ProcessScheduleInput: Schedule:Day:Interval=\"SCHEDULE DAY 118\", Blank Schedule Type Limits Name input -- will not be validated.\n   ** Warning ** ProcessScheduleInput: Schedule:Day:Interval=\"SCHEDULE DAY 119\", Blank Schedule Type Limits Name input -- will not be validated.\n   ** Warning ** ProcessScheduleInput: Schedule:Day:Interval=\"SCHEDULE DAY 12\", Blank Schedule Type Limits Name input -- will not be validated.\n   ** Warning ** ProcessScheduleInput: Schedule:Day:Interval=\"SCHEDULE DAY 120\", Blank Schedule Type Limits Name input -- will not be validated.\n   ** Warning ** ProcessScheduleInput: Schedule:Day:Interval=\"SCHEDULE DAY 121\", Blank Schedule Type Limits Name input -- will not be validated.\n   ** Warning ** ProcessScheduleInput: Schedule:Day:Interval=\"SCHEDULE DAY 122\", Blank Schedule Type Limits Name input -- will not be validated.\n   ** Warning ** ProcessScheduleInput: Schedule:Day:Interval=\"SCHEDULE DAY 123\", Blank Schedule Type Limits Name input -- will not be validated.\n   ** Warning ** ProcessScheduleInput: Schedule:Day:Interval=\"SCHEDULE DAY 124\", Blank Schedule Type Limits Name input -- will not be validated.\n   ** Warning ** ProcessScheduleInput: Schedule:Day:Interval=\"SCHEDULE DAY 125\", Blank Schedule Type Limits Name input -- will not be validated.\n   ** Warning ** ProcessScheduleInput: Schedule:Day:Interval=\"SCHEDULE DAY 126\", Blank Schedule Type Limits Name input -- will not be validated.\n   ** Warning ** ProcessScheduleInput: Schedule:Day:Interval=\"SCHEDULE DAY 127\", Blank Schedule Type Limits Name input -- will not be validated.\n   ** Warning ** ProcessScheduleInput: Schedule:Day:Interval=\"SCHEDULE DAY 128\", Blank Schedule Type Limits Name input -- will not be validated.\n   ** Warning ** ProcessScheduleInput: Schedule:Day:Interval=\"SCHEDULE DAY 129\", Blank Schedule Type Limits Name input -- will not be validated.\n   ** Warning ** ProcessScheduleInput: Schedule:Day:Interval=\"SCHEDULE DAY 13\", Blank Schedule Type Limits Name input -- will not be validated.\n   ** Warning ** ProcessScheduleInput: Schedule:Day:Interval=\"SCHEDULE DAY 130\", Blank Schedule Type Limits Name input -- will not be validated.\n   ** Warning ** ProcessScheduleInput: Schedule:Day:Interval=\"SCHEDULE DAY 131\", Blank Schedule Type Limits Name input -- will not be validated.\n   ** Warning ** ProcessScheduleInput: Schedule:Day:Interval=\"SCHEDULE DAY 132\", Blank Schedule Type Limits Name input -- will not be validated.\n   ** Warning ** ProcessScheduleInput: Schedule:Day:Interval=\"SCHEDULE DAY 133\", Blank Schedule Type Limits Name input -- will not be validated.\n   ** Warning ** ProcessScheduleInput: Schedule:Day:Interval=\"SCHEDULE DAY 134\", Blank Schedule Type Limits Name input -- will not be validated.\n   ** Warning ** ProcessScheduleInput: Schedule:Day:Interval=\"SCHEDULE DAY 135\", Blank Schedule Type Limits Name input -- will not be validated.\n   ** Warning ** ProcessScheduleInput: Schedule:Day:Interval=\"SCHEDULE DAY 136\", Blank Schedule Type Limits Name input -- will not be validated.\n   ** Warning ** ProcessScheduleInput: Schedule:Day:Interval=\"SCHEDULE DAY 137\", Blank Schedule Type Limits Name input -- will not be validated.\n   ** Warning ** ProcessScheduleInput: Schedule:Day:Interval=\"SCHEDULE DAY 138\", Blank Schedule Type Limits Name input -- will not be validated.\n   ** Warning ** ProcessScheduleInput: Schedule:Day:Interval=\"SCHEDULE DAY 139\", Blank Schedule Type Limits Name input -- will not be validated.\n   ** Warning ** ProcessScheduleInput: Schedule:Day:Interval=\"SCHEDULE DAY 14\", Blank Schedule Type Limits Name input -- will not be validated.\n   ** Warning ** ProcessScheduleInput: Schedule:Day:Interval=\"SCHEDULE DAY 140\", Blank Schedule Type Limits Name input -- will not be validated.\n   ** Warning ** ProcessScheduleInput: Schedule:Day:Interval=\"SCHEDULE DAY 141\", Blank Schedule Type Limits Name input -- will not be validated.\n   ** Warning ** ProcessScheduleInput: Schedule:Day:Interval=\"SCHEDULE DAY 142\", Blank Schedule Type Limits Name input -- will not be validated.\n   ** Warning ** ProcessScheduleInput: Schedule:Day:Interval=\"SCHEDULE DAY 143\", Blank Schedule Type Limits Name input -- will not be validated.\n   ** Warning ** ProcessScheduleInput: Schedule:Day:Interval=\"SCHEDULE DAY 144\", Blank Schedule Type Limits Name input -- will not be validated.\n   ** Warning ** ProcessScheduleInput: Schedule:Day:Interval=\"SCHEDULE DAY 145\", Blank Schedule Type Limits Name input -- will not be validated.\n   ** Warning ** ProcessScheduleInput: Schedule:Day:Interval=\"SCHEDULE DAY 146\", Blank Schedule Type Limits Name input -- will not be validated.\n   ** Warning ** ProcessScheduleInput: Schedule:Day:Interval=\"SCHEDULE DAY 147\", Blank Schedule Type Limits Name input -- will not be validated.\n   ** Warning ** ProcessScheduleInput: Schedule:Day:Interval=\"SCHEDULE DAY 148\", Blank Schedule Type Limits Name input -- will not be validated.\n   ** Warning ** ProcessScheduleInput: Schedule:Day:Interval=\"SCHEDULE DAY 149\", Blank Schedule Type Limits Name input -- will not be validated.\n   ** Warning ** ProcessScheduleInput: Schedule:Day:Interval=\"SCHEDULE DAY 15\", Blank Schedule Type Limits Name input -- will not be validated.\n   ** Warning ** ProcessScheduleInput: Schedule:Day:Interval=\"SCHEDULE DAY 150\", Blank Schedule Type Limits Name input -- will not be validated.\n   ** Warning ** ProcessScheduleInput: Schedule:Day:Interval=\"SCHEDULE DAY 151\", Blank Schedule Type Limits Name input -- will not be validated.\n   ** Warning ** ProcessScheduleInput: Schedule:Day:Interval=\"SCHEDULE DAY 152\", Blank Schedule Type Limits Name input -- will not be validated.\n   ** Warning ** ProcessScheduleInput: Schedule:Day:Interval=\"SCHEDULE DAY 153\", Blank Schedule Type Limits Name input -- will not be validated.\n   ** Warning ** ProcessScheduleInput: Schedule:Day:Interval=\"SCHEDULE DAY 154\", Blank Schedule Type Limits Name input -- will not be validated.\n   ** Warning ** ProcessScheduleInput: Schedule:Day:Interval=\"SCHEDULE DAY 155\", Blank Schedule Type Limits Name input -- will not be validated.\n   ** Warning ** ProcessScheduleInput: Schedule:Day:Interval=\"SCHEDULE DAY 156\", Blank Schedule Type Limits Name input -- will not be validated.\n   ** Warning ** ProcessScheduleInput: Schedule:Day:Interval=\"SCHEDULE DAY 157\", Blank Schedule Type Limits Name input -- will not be validated.\n   ** Warning ** ProcessScheduleInput: Schedule:Day:Interval=\"SCHEDULE DAY 158\", Blank Schedule Type Limits Name input -- will not be validated.\n   ** Warning ** ProcessScheduleInput: Schedule:Day:Interval=\"SCHEDULE DAY 159\", Blank Schedule Type Limits Name input -- will not be validated.\n   ** Warning ** ProcessScheduleInput: Schedule:Day:Interval=\"SCHEDULE DAY 16\", Blank Schedule Type Limits Name input -- will not be validated.\n   ** Warning ** ProcessScheduleInput: Schedule:Day:Interval=\"SCHEDULE DAY 160\", Blank Schedule Type Limits Name input -- will not be validated.\n   ** Warning ** ProcessScheduleInput: Schedule:Day:Interval=\"SCHEDULE DAY 161\", Blank Schedule Type Limits Name input -- will not be validated.\n   ** Warning ** ProcessScheduleInput: Schedule:Day:Interval=\"SCHEDULE DAY 162\", Blank Schedule Type Limits Name input -- will not be validated.\n   ** Warning ** ProcessScheduleInput: Schedule:Day:Interval=\"SCHEDULE DAY 163\", Blank Schedule Type Limits Name input -- will not be validated.\n   ** Warning ** ProcessScheduleInput: Schedule:Day:Interval=\"SCHEDULE DAY 164\", Blank Schedule Type Limits Name input -- will not be validated.\n   ** Warning ** ProcessScheduleInput: Schedule:Day:Interval=\"SCHEDULE DAY 165\", Blank Schedule Type Limits Name input -- will not be validated.\n   ** Warning ** ProcessScheduleInput: Schedule:Day:Interval=\"SCHEDULE DAY 166\", Blank Schedule Type Limits Name input -- will not be validated.\n   ** Warning ** ProcessScheduleInput: Schedule:Day:Interval=\"SCHEDULE DAY 167\", Blank Schedule Type Limits Name input -- will not be validated.\n   ** Warning ** ProcessScheduleInput: Schedule:Day:Interval=\"SCHEDULE DAY 168\", Blank Schedule Type Limits Name input -- will not be validated.\n   ** Warning ** ProcessScheduleInput: Schedule:Day:Interval=\"SCHEDULE DAY 169\", Blank Schedule Type Limits Name input -- will not be validated.\n   ** Warning ** ProcessScheduleInput: Schedule:Day:Interval=\"SCHEDULE DAY 17\", Blank Schedule Type Limits Name input -- will not be validated.\n   ** Warning ** ProcessScheduleInput: Schedule:Day:Interval=\"SCHEDULE DAY 170\", Blank Schedule Type Limits Name input -- will not be validated.\n   ** Warning ** ProcessScheduleInput: Schedule:Day:Interval=\"SCHEDULE DAY 171\", Blank Schedule Type Limits Name input -- will not be validated.\n   ** Warning ** ProcessScheduleInput: Schedule:Day:Interval=\"SCHEDULE DAY 172\", Blank Schedule Type Limits Name input -- will not be validated.\n   ** Warning ** ProcessScheduleInput: Schedule:Day:Interval=\"SCHEDULE DAY 173\", Blank Schedule Type Limits Name input -- will not be validated.\n   ** Warning ** ProcessScheduleInput: Schedule:Day:Interval=\"SCHEDULE DAY 174\", Blank Schedule Type Limits Name input -- will not be validated.\n   ** Warning
[...]
3/vbm7dXJy+PTnvfvJldHl3U/37E12+vnvV7X5xePqt6X7988+x5749/O3350/Wzq/Ob21/Kf/6199cXz39fP+169lMd8fV/9r58+bJ+7kdPcr/m33189fLy5OL6/4TP+d3Hxyc/f/jh8GfisNus3snxp3sv6zPw/PZtOzo5m11+X437e735m/np3vHJ1cXp0dtPTs5Obx979sPp+ct//NteDHib+u419K7fXtz+fP1+fvzj0c9H7/40+5P1+vnosu5r79Pe8clPF6ezg7PZL1///Hp/758/APm0Nzg8nP+fBw9gnXt8dH10G/ztf+2dHv0wO937ZO949uro5vS6d3F5/urkdLb39N0j3/+690k6OHy69/PR6c1s8b9f1tep25+5vfQ8f/7ixd5vT9fKqUw5fVPOwJQzNOWMTDljU87ElDM15aRDV5Cr0clV6eTqdHKVOrlanVy1Tq5eJ1exk6vZlavZle1a7Wp25Wp21arZvaubn35q/MPVa020y9lxi5jwPWoXE75D7WLC96ddTHju28WEp75dTHjm28WEJ75dTHje28XEg6xljqnH8RhrmWNqcjzEWuaYuhyPsJY5pjbHA6xljqnP8fhqmeO6Lpv6HM+uljnr9/mXk7Pr9mPrh/qP1s8J356WOeHb0zInfHta5oTHvWVOeNxb5oTHvWVOeNxb5oTHvWVOPL/aBrkaHU+wtkGuTsczrG2Qq9XxFGsb5Op1PMfaBrmaHU+ytkG2a7Wr2fEwaxu0frOXf5Px4L80HI25w8b/o/funyI2bFFtfov+5rcYbH6L4ea3GG1+i/Hmt5hsfovp5rdoTPZN7bGF8522cMDTFk542sIRT1s442kLhzxt4ZSnLRzztIVzXm3hnFfbmONbOOfVFs55VXbOH/wHHde7rXr3Lz4atoh/G7Yt4l+GbYv4d2HbIr7k2raIr7i2LeILrm2L+Hpr2yK+3Nq2yPzNtW+P+K/+fHvEfyvo2yP+C0PfHls44pnbKt8eWzjkmdsq3x5bOOaZ2yrf/Itvq3x7bGOOb2GQZ26rfHuUnfMH/92s9W6r3v3DWoYt4t+GbYv4l2HbIv5d2LaIL7m2LeIrrm2L+IJr2yK+3tq2iD8bZdsic1vl2yO+rfLtEd9W+faIb6t8e8Qf0fLtEX8u0bdH/JFF3x7xpxl9e8QfdPTtsYVznrmt8u2xjTm+hUGeua3y7VE2yh/850nWu6169++XGLaIfxu2LeJfhm2L+Hdh2yK+rbJtEd9W2baIb6tsW8S3VbYt4sutbYvMbZVvj/i2yrdHfFvl2yO+rfLtEd9W+faIb6t8e8S3Vb494tsq3x7xbZVvjy2c88xtlW+PbczxLQzyzG2Vb4+yUf6gBX6926p3mnjDFvFvw7ZF/MuwbRH/LmxbxLdVti3i2yrbFvFtlW2L+LbKtkV8ubVtkbmt8u0R31b59ohvq3x7xLdVvj3i2yrfHvFtlW+P+LbKt0d8W+XbI76t8u2xhXOeua3y7bGNOb6FQZ65rfLtUTbKH5Ttrndb9c7Ga9gi/m3Ytoh/GbYt4t+FbYv4tsq2RXxbZdsivq2ybRHfVtm2iC+3ti0yt1W+PeLbKt8e8W2Vb4/4tsq3R3xb5dsjvq3y7RHfVvn2iG+rfHvEt1W+PbZwzjO3Vb49tjHHtzDIM7dVvj3KRvmDTsP1bqveSQ8NW8S/DdsW8S/DtkX8u7BtEd9W2baIb6tsW8S3VbYt4tsq2xY575Rpi6xszbVHzlbl2iMnsnLtkXNcufbI6a9ce+Scb649cjo41x45U5xrj5xEzrXHFs555rbKt8c25vgWBnnmtsq3x8Oj/Lt1DK8LnXPv097Z7Jc7g+xcHLt/9fPrp3MD7IOq2Dsn9NXs+vfnN2fHV/vDw6e9lIZPe/36f1XD9XSzv95iLFXXx8fPj65nr88v337268nVO6fy8vWvIZ6+Dfjy8nh2+dVNrThe+wdrjrdNjr/Mjq5uLmfvMGpL8+J937D0m4d5mId5mId5mId5mId5mId5mId5mId5mId5mId5mId5mId5mId5mId5mId5mId5mId5mId5mId5mId5mId5mId5mId5mId5mId5mId5mId5mId5mIf/Vz389uD859nl5cnx7C9H9Rdr08Gh+H3V+quxV82vxn49uzyZXS2+Xrv39O4LxBen59cHpydnswe/Inv1oe/pPvzN2quD+T89f3F+enR9cn52C7V3dT27ePbD7NX55WxvvW8+/3n2enZ23HxB7/5sf3T4tNevv7l8WH+Ruf4/e6ezV9c12APRd7EH37+eXb84u67fn9stXt2cvZyT7j/p/dcDEXeEs+VPf/vgd7nrdfKqt3/95uTq4Gr+W1lvo3qt/NDB7fv34ujlm/3/Bm6bdodff3X8ln2R+/3F+dVJHfj57R+v82ruVh3zAarL81/aId1hnZwdz+rz8Cw9bfnTd+vH0h98dTI7rfu2v3hP352T15fnNxez496//EvvnxZ//uvB92+Orhbff68P2JPVR99+8NHbN+Tg6PXrL+o9Dk5nZ6+v3/R+16t6/7e399np6V7vk+Yzrk5PXs72n6Un3x5+9+TB83bvlZxf9vZ/vH0ph//W+/F2m0VVF/vWf/avt1ec9r+getU1XuR9++N3B/+Yve19+umn7968ssR56uLX/mPbl3q3fricHf2j5Id/a/kzbZ9fv1+LV/dpXeu6DIumzEUOB98fXV2dvD6bHT+vFRFX387fye/K3sq7X/TFzdWb/dLfxe2v9JN3v8/yk3R6+sk6r/KgfmbpLlfXl+f/mK23z7vnlu50fnH08uT67XpbLZ5c/KrmW9xtVZpydyFpXlZKjkfri0+97o5z88LTe9ZLbdPaHLf1WX97Op+qaz3/t4fuKer18ce9v/39m95/fPn3r3pff/nVN3/66x96f/7yD3963vvji69erBfwxe1Ve/brUX2L1rs+712dX173zm5+uu3By95caXLVO7p6eXvzcnL2eo3Eu/e+zlmZzEdPez+sf3G5nF3fXJ71Lo4ur2ZfnJ4fXe8f1Zf8J7e/ypU/+2H+Z2u9mQ/foq1su3gJDwX/tlnTy/L+c37c54d9/6Pj2aujm9Pr3sXl+e01bPbR095H/zyZPH/+4sVHGxbPgAMOOOCAAw444IADDjjg/O/E6V3d/HT7/wL3jmf1H/aOj97WRJezY2iggQYaaKCBBhpooIEGGmjyNL/MP5r1Hs0PpzczcMABBxxwwAEHHHDAAQcccEpwlv9uYKr/3cCvb6J/N7Cf5n/D9tlng8F0CimkkEIKKaSQQgoppJBCCimkkHaDtJqTHl1HpIdz0n6/qiYjSCGFFFJIIYUUUkghhRRSSCGFtBuk/Zr0i8uTgLSazklTGo/7fUghhRRSSCGFFFJIIYUUUkghhbQbpIOa9Js3NxHpZE46vV3D30MKKaSQQgoppJBCCimkkEIKKaTdIB3WpP8+O45Ix3PSzz9//nw8hhRSSCGFFFJIIYUUUkghhRRSSLtBOpr/l4mbWUQ6mpM+fz4aQQoppJBCCimkkEIKKaSQQgoppF0hHdekfzmPzILVcE46mVTVcAgppJBCCimkkEIKKaSQQgoppJBujfQO5fjy6Jf9B8N+Pbg+uT6dff3m6GJ2cD379Xr/oz+e31xePYzx9v5Pfn7y0+zs6uT87HR2NU94IOLjj3ufHR/3jnrzpN4vJ9dvelfnP816x/0HfvLq59cHRxcXs7Pj/b16770nD/zA3To4ur6+3N/7de9pb3TY8ofe3v5Qtf4PXV2/PZ29w3t2dPbyzfnl7c/vnc5etaBdZLw6P7t+9svs5PWb6zrjh/PT4/Uz3v1uvr549sXp+fllr9/7+9nx7OfZ6fnF7LiXel+/vXo26H1xevms6n398s2zF70//u305U/Xz67Ob25/H//5195fXzz/ff2069lPvUHvb1//Z+/Lly/r5370JPcb/t3HVy8vTy6u/0/4nN99fHzy84cfDn8mDrvN6p0cf7r3sq7/89t37OjkbHb5fTUe7PXm7+One8cnVxenR28/OTk7vX3s2Q+n5y//8W97MeBt6rvX0Lt+e3H78/Vb+fGPRz8fvfvT7E/W6+ejy7qqvU97xyc/XZzODs5mv3z98+v9vX/+AOTT3uDwcP5/Hjx7de7x0fXRbfC3/7V3evTD7HTvk73j2aujm9Pr3sXl+auT09ne03ePfP/r3ifp4PDp3s9HpzezvU+Gw4P+dGX1h0/3XtZXrNuI24vQ8+cvXuz99nSt2Gozsf3NxA42EzvcTOxoM7HjzcRONhM73UxsOtxQ7obOWdrQQUsbOmlpQ0ctbeispQ0dtrSh05Y2dNzShs5btaHzVm1qrm3ovFUbOm+Vct56Vzc//dT4t8FL7hwuZ8ctUtd9f9ulrvvutktd971tl7rulaxd6rrXsXap617F2qWuew1rl7ruFaxd6to3DC1jN3O61r5daBm7mfO19s1Cy9jNnLC1bxVaxm7mjK19o9AydjOnbO3bhJaxG5phmzlla98jtIwtPmW/nJxdy7cHP9TPWD923be2Zey6b23L2HXf2pax617AWsauewFrGbvuBaxl7LoXsJax617AWsaufZ/QNndD52ztO4W2uRs6aWvfK7TN3dBZW/tuoW3uhk7b2vcLbXM3dN7WvmNom7upubah87b2TUPb3Hbn7bt1/uJi8ReUvU97Z7Nf7v5iZP73IftXP79+Ov+LjQf/BuTubzmvZte/P785O77aHx4+7aU0fNrr1/+rGq73tyi/3mIs//L2+Pj50fXs9fnl289+Pbl697eEy/dijb9KvQ348vJ4dvnVTf2Xdmv/YM3xtsnxl9nR1c3l7B1G/feOi9+B+pfD87+Qam719ezyZHa1wL3dafELuTg9vz6o/5bswS2vPvS6Hya9OpgX7+L89Oj65PzsFmrv6np28eyH2avzy9neek368+z17Oy4+YLe/dn+6LYF/boJ9V+qpfr/LP7u9cG/lr6LPfj+9ez6xdl1/f7cbvHq5uzlnHT/Se+/1vjL15pwtvzpbx88G/U6edXbv35zcnXb6/rn1tuoXis/dHD7/r04evlm/7+B26bd4S/+jnGR+/3F+dVJHfj57R+v82ruVh3zAarL81/aId1hnZwdz+qD+yw9bfnTd+vH0h98dTI7rfu2v3hP352T15fnN/Xfpv/Lv/T+afHnvx58/+boanE9qQ/Yk9VH337w0ds35ODo9esv6j0OTmdnr6/f9H7Xq3r/t7f32enpXu+T5jOuTk9ezvafpSffHn735MHzdu+VnF/29n+8fSmH/9b78XabRVUX+9Z/9q+f9lL7X1C96hov8r798buDf8xuL2+ffvruzStLnKcufu0/tn2pd+uHy9nRP0p++LeWP9P2+fX7tXh1n9a1rsuwaMp8MB58/+6DRbPj+UeLrr6dv5Pflb2Vd7/oi5urN/ulv4vbX+kn736f5Sfp9PSTdV7lQf3M0l2uri/P/zFbb593zy3d6fzi6OXJ9dv1tlo8ufhVzbe426o05e5C0ryslByP1hefet0d5+aFp/esl9qmtTlu67P+9nQ+Vdd6/m8P3VPU6+OPe3/7+ze9//jy71/1vv7yq2/+9Nc/9P785R/+9Lz3xxdfvVgv4Ivbq/bs16P6Fq13fd67Or+9kT67+em2By9781vEq97R1cvbm5eTs9drJN6993XOymQ+etr7Yf2Ly+Xs+ubyrHdxdHk1++L0/Oh6/6i+5D+5/VWu/NkP8z9b6818+BZtZdvFS3go+Lf/gQ+Avvc3totPedZ/Afs/8nlUcMABBxxwwAEHHHDAAQeczuPc/+RLTXQ5O4YGGmiggQYaaKCBBhpooIEmT3PvM4E1Tf0RP3DAAQcccMABBxxwwAEHHHD+B7WL38x+uphdHl3fXM56+188Qby4W+LFm4uL07e9z04ue/UvqiPOxGEXnIlDnImt1QY4E9vH4kzEmdhebYAzsSwXZyLORJyJOBNxJuJM/FAszkSciTgTW98m4ExsH4szEWcizsS2twk4E8tycSbiTMSZiDPxA39xgTPxAxw4E3Em9nAmroeFMxFnYsnCmVgvnIk4E+cLZ2L+mTgTHw6oF87EbqhFwAEHHHDAAQcccMABBxxwOo+zY8YRaKCBBhpooIEGGmiggQaa7tA8GtMJOOCAAw444IADDjjggANO+X44Ez+8cCa+cyb2UkesiaMuWBNHWBNbyw2wJraPxZqINbG93ABrYlku1kSsiVgTsSZiTcSa+KFYrIlYE7Emtr5NwJrYPhZrItZErIltbxOwJpblYk3Emog1EWviB/7iAmviBziwJmJN7GFNXA8LayLWxJKFNbFeWBOxJs4X1sT8M7EmPhxQL6yJ3ZCLgAMOOOCAAw444IADDjjgdB5nx5wj0EADDTTQQAMNNNBAAw003aF5NK4TcMABBxxwwAEHHHDAAQec8v2wJn54YU1cWBOrjlgTx12wJo63Zk2c/+9SPZMpp2/KGZhyhqackSlnbMqZmHKmppyGVUAKcjU6uSqdXJ1OrlInV6uTq9bJ1evkKnZyNbtyNbuyXatdza5cza5aNXt9m18jqlzfJ8SE71C5oE+ICc99uYJPiAnPfLlkT4gJz7ug0VNyTD2Ox5hgxlNyTFWOZ5ggu1NyTG2OB5jgr1Oug6Y+x9NLUNIpOaY+x6Or3DLXiBG0ckpO+PYI4jglJzzughpOyQmPuyB/U3LC467o3aQgV6PjCaYY26QgV6njIaZI2KQgV6/jOaZ41aQro6vZ8ShTVGlSkKvZ8TS7F/S3y5Pzy5Prt73Ue9bb//rm7EntoRo9+39HZ88O07P5//589vJZP0Vj7rDx/+h99tlgMJ0atqg2v0V/81sMNr/FcPNbjDa/xXjzW0w2v8V081s0Jvum9tjC+U5bOOBpCyc8beGIpy2c8bSFQ562cMrTFo552sI5r7ZwzqttzPEtnPNqC+e8Kjvn1XyPo+toj8P1bqv6/aqajAxbxL8N2xbxL8O2Rfy7sG0RX3JtW8RXXNsW8QXXtkV8vbVtEV9ubVtkbqt8e2zhfGduq3x7bOGEZ26rfHts4Yxnbqt8e2zhlGduq3x7bOGcZ26rfHtsY45v4Zxnbqt8e5Sd8369xxeXJ8Ee1XS926qUxuN+37BF/NuwbRH/MmxbxL8L2xbxJde2RXzFtW0RX3BtW8SfgLJtEX82yrZF5gOBvj3iT1T59og/bOXbI/4clm+P+CNavj3izyX69og/sujbI/40o2+PLRzzzGcgffNvC+c888lJ3x5bOOeZz1v69igb5YN6j2/e3ER7TNa7rar/zaXh7w1bxLdVti3i2yrbFvHvwrZFfFtl2yK+rbJtEd9W2baIr7e2LeLLrW2LzG2Vb4//39759jRuPW//+f0qTl1pCWowcUL416UVzUJbqVsq2G1VoRVy4pPErLEj2wGiivf+83FsCl3G9nEm7pfelx9st554ro/POTNnNokndLrl06DTLZ8GnW75NOiyik+DLqv4NOiyik+DLqv4NBoI84Kyim//ayDOC8oqPo0G4rygrOLTqLeV95XGH9KhNPaqlVXv3g0Ge3sMEnRZxSZBl1VsEvRcsEnQZRWbBF1WsUnQZRWbBJ1v2STodMsmUVBW8WnQ6ZZPg063fBp0uuXToMsqPg26rOLToMsqPg26rOLTaCDMC8oqvv2vgTgvKKv4NBqI84Kyik+j3la+m5Zuc0lp7FYrqwaD3V0WCbqsYpOgyyo2CXou2CTosopNgi6r2CTosopNgs63bBJ0umWTKCir+DTodMunQadbPg063fJp0GUVnwZdVvFp0GUVnwZdVvFpNBDmBWUV3/7XQJwXlFV8Gg3EeUFZxadRbyvfUxrvA+pr8d1+tbJqf7/b7fcZJOiyik2CLqvYJOi5YJOgyyo2CbqsYpOgyyo2iaLuUkwSRX2nmCQKm61xadDplk+jqJEVl0ZRjysujaL2V1waRT3fuDSK2sFxaRR1iuPSaCDMC/vLce1/DcR5YVc6Lo0G4rywlx2XRvlW/qlKh9esEbM4Er68yzvIpo1jW9HtpJ12gC1tFZt3c45k/EMw952o1e+0hWX126Kn/tbtV2s3e59gPHaidpyBHctJEC6O791o2Qv58f4rtIxOHJyFjgzP56o1ceULFcfiOcd7aUfzUC4xVHflbNzX3JMbZphhhhlmmGGGGWaYYYYZZphhhhlmmGGGGWaYYYYZZphhhhlmmGGGGWaYYYYZZphhhhlmmGGGGWaYYYYZZphhhhlmmGGGGeb/lHlhBrcyDF1HvrfVg7WW2VnxeVX1aGz0/NHYCxm6MsoerzXa+QPEMy+ITc/1ZekjstFLz+mWP1kbmelPz88Cz47dwE+gjCiWs62hHAehNKo9+fyLnEjfeX5Dy3Ot3U5b9NSTyx31ILP6w/DkOFZgJa5zt+bVRMYnfqzGJ5EYz/1RStraFH+VuMgJ5ePVl6XPcqvDHYtWPHUjM0pnpZqQOp5cZCbjd2KPpq2/gXW95fjq0fGEPfN7NQsiVzl8l5yucjf5ody8QBUGd3pIOZbrO1LFw5bV1rw6P67rXjh2pafWWysb02WcTMJgPpOOePNGfJWdvzevpnaUPf+uAmzzqXXxojUZENOeTE6VhulJfxJPxVvRFd8L49jzDHH4/BWR545ka8vavOx82iyNty/uJAhF6zq5lc634jqRyZZqpqvOfZNkHP0JUodaxpm/y+tP5me5EEdHR8vBq+cx9ZpN+7XurebHMJT25zoXP2heo/t6NV7Z3R2pZa0WQ7ZS0kYO5pUdRe7El85AtYiILtOR/FRvKPOJns2jaavuXCRTericz/qR5HmHVe7SVK+sqxLFYfBZVtNZvrauUjCzR268qCaVvbj2XaUSuVRdL3kieZ5W6oSHdvJRRx7OzxOP2BKWrjedcKvO+tBOd9VKr38oqynUsb0tfvv4Qfx59vFcXJydf/j51x/FL2c//jwQP52cn1RzcJpkbXlvqxJNxIGIgjAW/vwmWQcjkbY0iYQdjZLixfUnFTzmY6/8PNmZ7bYYVk8uoYznoS9mdhjJUy+w45atUv5mMpVPzg3Tc5UGs7xEeyKb3UKZ44f1dnp5rD/TcE+DvbXhyLE992IxC4Mkh8mNttj4en9/MDg52Vhz4xngAAc4wAEOcIADHOAABzjA+W/iiGh+k/wTWDhSnRSOvVBEoXRAAxrQgAY0oAENaEADGtCABjTFNHfpV7P+QTP05hI4wAEOcIADHOAABzjAAQ5wgFMH5/F3Ay31u4EXc+p3A3tW+gnb8fHOzsEBSEEKUpCCFKQgBSlIQQpSkIIUpCB9HaTdlNSOKdJOStrrdbv7uyAFKUhBClKQghSkIAUpSEEKUpCC9HWQ9hTpaegSpN2DlNSy9vZ6PZCCFKQgBSlIQQpSkIIUpCAFKUhB+jpIdxTph+mcIt1PSQ+So/8DSEEKUpCCFKQgBSlIQQpSkIIUpCB9HaR9RfqHdCjSvZT03bvBYG8PpCAFKUhBClKQghSkIAUpSEEKUpC+DtLd9J2JuaRId1PSwWB3F6QgBSlIQQpSkIIUpCAFKUhBClKQvhbSPUX6PqA6C3b7Ken+frfb74MUpCAFKUhBClKQghSkIAUpSEEK0sZIcxQntO9apc7uzdiNPXkxtWfSjOV93Nr4KZiHUTnG4ssr37k30o/cwPdklHoocbG9LY4dR9gi9STu3HgqouBGCqdXcmV0OzHt2Uz6TstQ2sZmyQX5YdpxHLaMe6MtdjuaFy2Si7rVL4rihSeXeFu2P5oGYXK94cmxBm3mYxz48daddCfTWPkYBp5T3cdybn4//n05wOdyKu1YWOJsNBIXo+nGZtE0vd2ORqE7i78jX/N223FvXzaT19DOEl/CdY6MkVrDg+S2bdeX4VV3b98Q6WAcGY4bzTx7cej6XmLbGnrB6PO3Bg2YeF3eg4gXs+R6NR7b1/atvTxbeKU6bu1QrTdxJBz3ZuZJ05d3F7eTlvH1C5BtsdPppH+UBpDy69ixnTi+/Mvw7KH0jEPDkWN77sViFgZj15NGe2m5ujcOLbPTNm5tby6zv49UnkmuSVLHYHByYjy0K/npMvnpMfnZYfLTZ/Kzy+Rnj8nPPpOfAyY/VofLEdeKtriWtMW1pi2uRW1xrWqLa1lbXOva4lrYFtfK7nKt7C5bruZa2V2uld3VWtkimt/cPPvh6Uo7WigdDTfkGOm5IUdIzw05PnpuyLjXc0NGvZ4bMub13JARr+eGjHc9N/RGpumHaR3T25imH6aVTG9imn6Y1jK9hWn6YVrN9Aam6YdpPdPbl6YfrrzMtJ7pvUvTT/X1fOf6sf62NVSnqvshh0fTDzk8mn7I4dH0Q4a7ph8y3DX9kOGu6YcMd00/ZLhr+qH3L11HXCua3sF0HXGtaXoP03XEtarpXUzXEde6pvcxXUdcK5veyXQdseVqrpVNb2a6jqqv7MdPIkp/KZja5jrP/qG3/ClhBonu+iV665fYWb9Ef/0Su+uX2Fu/xP76JQ7WL/FsZ1+XRgPxbTUQ4FYDEW41EOJWAzFuNRDkVgNRbjUQ5lYDcd5tIM67TezjDcR5t4E479aL89IfZKxWVi1/sZFBgp4NNgl6Mtgk6Llgk6BTLpsEnXHZJOiEyyZB51s2CTrdskkUlFV8Gg3Ed0FZxafRQIQXlFV8Gg3EeEFZxafRQJQXlFV8Gg3EeUFZxafRxD7eQJwXlFV8GvXivPR3r6qVVcsfxmKQoGeDTYKeDDYJei7YJOiUyyZBZ1w2CTrhsknQ34Bik6C/G8UmUfCFQD4N+htVfBr0l634NOjvYfFp0F/R4tOgv5fIp0F/ZZFPg/42I59GA2Fe8B1Ivv2vgTgv+OYkn0YDcV7wfUs+jXpbeenPi1Qrq5a/P8IgQZdVbBJ0WcUmQc8FmwRdVrFJ0GUVmwRdVrFJ0PmWTYJOt2wSBWUVnwadbvk06HTLp0GnWz4Nuqzi06DLKj4Nuqzi06DLKj6NBsK8oKzi2/8aiPOCsopPo4E4Lyir+DTqbeWlXdyrlVXLNu8MEnRZxSZBl1VsEvRcsEnQZRWbBF1WsUnQZRWbBJ1v2STodMsmUVBW8WnQ6ZZPg063fBp0uuXToMsqPg26rOLToMsqPg26rOLTaCDMC8oqvv2vgTgvKKv4NBqI84Kyik+j3lZe2iy3Wlm17KbLIEGXVWwSdFnFJkHPBZsEXVaxSdBlFZsEXVaxSdD5lk2CTrdsEgVlFZ8GnW75NOh0y6dBp1s+Dbqs4tOgyyo+Dbqs4tOgyyo+jQbCvKCs4tv/GojzgrKKT6OBOC8oq/g06m3lpT0Jq5VVy6aFDBJ0WcUmQZdVbBL0XLBJ0GUVmwRdVrFJ0GUVm0RRdykmiaK+U0wShc3WuDTodMunUdTIikujqMcVl0ZR+ysujaKeb1waRe3guDSKOsVxaTQQ5oX95bj2vwbivLArHZdGA3Fe2MuOS6N8K/9UpcNr1o5ZHAlf3uUdZNPGsa3odtJOO8CWtorNezpHMv4hmPtO1Op32sKy+m3RU3/r9qu1m71PMB5bVTvOwI7lJAgXx/dutOyJ/Hj/FRpHJw7OQkeG53PVorjyhYpj8ZzjvbSjeSiXGKrLcjbua27aDTPMMMMMM8wwwwwzzDDDDDPMMMMMM8wwwwwzzDDDDDPMMMMMM8wwwwwzzDDDDDPMMMMMM8wwwwwzzDDDDDPMMMMMM8wwwwzzf8q8MINbGYauI9/b6sFay+ys+LyqejQ2ev5o7IUMXRllj9ca7fwB4pkXxKbn+rL0Ednoped0y5+sjcz0p+dngWfHbuAnUEYUy9nWUI6DUBrVnnz+RU6k7zy/oeW51m6nLXrqyeWOepBZ/WF4chwrsBLXuVvzaiLjEz9W45NIjOf+KCVtbYq/SlzkhPLx6svSZ7nV4Y5FK566kRmls1JNSB1PLjKT8TuxR9PW38C63nJ89eh4wp75vZoFkascvktOV7mb/FBuXqAKgzs9pBzL9R2p4mHLamtenR/XdS8cu9JT662VjekyTiZhMJ9JR7x5I77Kzt+bV1M7yp5/VwG2+dS6eNGaDIhpTyanSsP0pD+Jp+Kt6IrvhXHseYY4fP6KyHNHsrVlbV52Pm2WxtsXdxKEonWd3ErnW3GdyGRLNdNV575JMo7+BKlDLePM3+X1J/OzXIijo6Pl4NXzmHrNpv1a91bzYxhK+3Odix80r9F9vRqv7O6O1LJWiyFbKWkjB/PKjiJ34ktnoFpERJfpSH6qN5T5RM/m0bRVdy6SKT1czmf9SPK8wyp3aapX1lWJ4jD4LKvpLF9bVymY2SM3XlSTyl5c+65SiVyqrpc8kTxPK3XCQzv5qCMP5+eJR2wJS9ebTrhVZ31op7tqpdc/lNUU6tjeFr99/CD+PPt4Li7Ozj/8/OuP4pezH38eiJ9Ozk+qOThNsra8t1WJJuJAREEYC39+k6yDkUhbmkTCjkZJ8eL6kwoe87FXfp7szHZbDKsnl1DG89AXMzuM5KkX2HHLVil/M5nKJ+eG6blKg1leoj2RzW6hzPHDeju9PNafabinwd7acOTYnnuxmIVBksPkRltsfL2/PxicnGysufEMcIADHOAABzjAAQ5wgAMc4Pw3cUQ0v0n+CSwcqU4Kx14oolA6oAENaEADGtCABjSgAQ1oQAOaYpq79KtZ/6AZenMJHOAABzjAAQ5wgAMc4AAHOMCpg/P4u4GW+t3Aizn1u4E9K/2E7fh4Z+fgAKQgBSlIQQpSkIIUpCAFKUhBClKQvg7SbkpqxxRpJyXt9brd/V2QghSkIAUpSEEKUpCCFKQgBSlIQfo6SHuK9DR0CdLuQUpqWXt7vR5IQQpSkIIUpCAFKUhBClKQghSkIH0dpDuK9MN0TpHup6QHydH/AaQgBSlIQQpSkIIUpCAFKUhBClKQvg7SviL9QzoU6V5K+u7dYLC3B1KQghSkIAUpSEEKUpCCFKQgBSlIXwfpbvrOxFxSpLsp6WCwuwtSkIIUpCAFKUhBClKQghSkIAUpSF8L6Z4ifR9QnQW7/ZR0f7/b7fdBClKQghSkIAUpSEEKUpCCFKQgBWljpDmKE9p3rVJn92bsxp68mNozacbyPm5t/BTMw6gcY/Hlle/cG+lHbuB7Mko9lLjY3hbHjiNskXoSd248FVFwI4XTK7kyup2Y9mwmfadlKG1js+SC/DDtOA5bxr3RFrsdzYsWyUXd6hdF8cKTS7wt2x9NgzC53vDkWIM28zEO/HjrTrqTaax8DAPPqe5jOTe/H/++HOBzOZV2LLribDQSF6PpxmbRNL3djkahO4u/I1/zdttxb182k9fQzhJfwnWOjJFaw4Pktm3Xl+FVd+/AEOlgHBmOG808e3Ho+l5i2xp6wejztwYNmHhd3oOIF7PkejUe29f2rb08W3ilOm7tUK03cSQc92bmSdOXdxe3k5bx9QuQbbHT6aR/lAaQ8uvYsZ04vvzL8Oyh9IxDw5Fje+7FYhYGY9eTRntpubo3Di2z0zZubW8us7+PVJ5JrklSx2BwcmI8tCv56TL56TH52WHy02fys8vkZ4/Jzz6TnwMmP1aHyxHXira4lrTFtaYtrkVtca1qi2tZW1zr2uJa2BbXyu5yrewuW67mWtldrpXd1VrZIprf3Dz74elKO1ooHQ035BjpuSFHSM8NOT56bsi413NDRr2eGzLm9dyQEa/nhox3PTf0Rqbph2kd09uYph+mlUxvYpp+mNYyvYVp+mFazfQGpumHaT3T25emH668zLSe6b1L00/19Xzn+rH+tjVUp6r7IYdH0w85PJp+yOHR9EOGu6YfMtw1/ZDhrumHDHdNP2S4a/qh9y9dR1wrmt7BdB1xrWl6D9N1xLWq6V1M1xHXuqb3MV1HXCub3sl0HbHlaq6VTW9muo6qr+zHTyJKfym42vuNy58SZpCg/3XLJkH/u5dNgv4XMZsE/S4QmwT9/hCbBP3OEZsE/Z4SmwT9bhObRMFbrHwaDcR3wRuzfBoNRHjB27l8Gg3EeMGbwHwaDUR5wVvHfBoNxHnBG858Gk3s4w3EecE72Hwa9eK89AcZq5VVy19sZJCgZ4NNgp4MNgl6Ltgk6JTLJkFnXDYJOuGySdD5lk2CTrdsEgVlFZ9GA/FdUFbxaTQQ4QVlFZ9GAzFeUFbxaTQQ5QVlFZ9GA3FeUFbxaTSxjzcQ5wVlFZ9GvTgv/d2ramXV8oexGCTo2WCToCeDTYKeCzYJOuWySdAZl02CTrhsEnS+ZZOg0y2bREFZxafRQHwXlFV8Gg1EeEFZxafRQIwXlFV8Gg1EeUFZxafRQJwXlFV8Gk3s4w3EeUFZxadRL85Lf16kWlm1/P0RBgl6Ntgk6Mlgk6Dngk2CTrlsEnTGZZOgEy6bBJ1v2STodMsmUVBW8Wk0EN8FZRWfRgMRXlBW8Wk0EOMFZRWfRgNRXlBW8Wk0EOcFZRWfRhP7eANxXlBW8WnUi/PSLu7Vyqplm3cGCXo22CToyWCToOeCTYJOuWwSdMZlk6ATLpsEnW/ZJOh0yyZRUFbxaTQQ3wVlFZ9GAxFeUFbxaTQQ4wVlFZ9GA1FeUFbxaTQQ5wVlFZ9GE/t4A3FeUFbxadSL89JmudXKqmU3XQYJejbYJOjJYJOg54JNgk65bBJ0xmWToBMumwSdb9kk6HTLJlFQVvFpNBDfBWUVn0YDEV5QVvFpNBDjBWUVn0YDUV5QVvFpNBDnBWUVn0YT+3gDcV5QVvFp1Ivz0p6E1cqqZdNCBomiPjdMEkUdcJgkinrjMEkU9YNikijqFMUkUdRDikmiqLsUk0RR3ykmicJma1waDcR3YYs2Lo0GIrywsRuXRgMxXtgOjkujgSgvbCLHpdFAnBe2nuPSaGIfbyDOC3vZcWmUx/mnKh1es3bM4kj48i7vIJs2jm1Ft5N22gG2tFVs3tM5kvEPwdx3ola/0xaW1W+Lnvpbt1+t3ex9gvHYqtpxBnYsJ0G4OL53o2VP5Mf7r9A4OnFwFjoyPJ+rFsWVL1Qci+cc76UdzUO5xFBdlrNxX3PTbphhhhlmmGGGGWaYYYYZZphhhhlmmGGGGWaYYYYZZphhhhlmmGGGGWaYYYYZZphhhhlmmGGGGWaYYYYZZphhhhlmmGGGGWaY/1PmhRncyjB0HfneVg/WWmZnxedV1aOx0fNHYy9k6Mooe7zWaOcPEM+8IDY915elj8hGLz2nW/5kbWSmPz0/Czw7dgM/gTKiWM62hnIchNKo9uTzL3Iifef5DS3PtXY7bdFTTy531IPM6g/Dk+NYgZW4zt2aVxMZn/ixGp9EYjz3Rylpa1P8VeIiJ5SPV1+WPsutDncsWvHUjcwonZVqQup4cpGZjN+JPZq2/gbW9Zbjq0fHE/bM79UsiFzl8F1yusrd5Idy8wJVGNzpIeVYru9IFQ9bVlvz6vy4rnvh2JWeWm+tbEyXcTIJg/lMOuLNG/FVdv7evJraUfb8uwqwzafWxYvWZEBMezI5VRqmJ/1JPBVvRVd8L4xjzzPE4fNXRJ47kq0ta/Oy82mzNN6+uJMgFK3r5FY634rrRCZbqpmuOvdNknH0J0gdahln/i6vP5mf5UIcHR0tB6+ex9RrNu3XureaH8NQ2p/rXPygeY3u69V4ZXd3pJa1WgzZSkkbOZhXdhS5E186A9UiIrpMR/JTvaHMJ3o2j6atunORTOnhcj7rR5LnHVa5S1O9sq5KFIfBZ1lNZ/naukrBzB658aKaVPbi2neVSuRSdb3kieR5WqkTHtrJRx15OD9PPGJLWLredMKtOutDO91VK73+oaymUMf2tvjt4wfx59nHc3Fxdv7h519/FL+c/fjzQPx0cn5SzcFpkrXlva1KNBEHIgrCWPjzm2QdjETa0iQSdjRKihfXn1TwmI+98vNkZ7bbYlg9uYQynoe+mNlhJE+9wI5btkr5m8lUPjk3TM9VGszyEu2JbHYLZY4f1tvp5bH+TMM9DfbWhiPH9tyLxSwMkhwmN9pi4+v9/cHg5GRjzY1ngAMc4AAHOMABDnCAAxzgAOe/iSOi+U3yT2DhSHVSOPZCEYXSAQ1oQAMa0IAGNKABDWhAAxrQFNPcpV/N+gfN0JtL4AAHOMABDnCAAxzgAAc4wAFOHZzH3w201O8GXsyp3w3sWeknbMfHOzsHByAFKUhBClKQghSkIAUpSEEKUpCC9HWQdlNSO6ZIOylpr9ft7u+CFKQgBSlIQQpSkIIUpCAFKUhBCtLXQdpTpKehS5B2D1JSy9rb6/VAClKQghSkIAUpSEEKUpCCFKQgBenrIN1RpB+mc4p0PyU9SI7+DyAFKUhBClKQghSkIAUpSEEKUpCC9HWQ9hXpH9KhSPdS0nfvBoO9PZCCFKQgBSlIQQpSkIIUpCAFKUhB+jpId9N3JuaSIt1NSQeD3V2QghSkIAUpSEEKUpCCFKQgBSlIQfpaSPcU6fuA6izY7aek+/vdbr8PUpCCFKQgBSlIQQpSkIIUpCAFKUgbI81RnNC+a5U6uzdjN/bkxdSeSTOW93Fr46dgHkblGIsvr3zn3kg/cgPfk1HqocTF9rY4dhxhi9STuHPjqYiCGymcXsmV0e3EtGcz6TstQ2kbmyUX5Idpx3HYMu6NttjtaF60SC7qVr8oiheeXOJt2f5oGoTJ9YYnxxq0mY9x4Mdbd9KdTGPlYxh4TnUfy7n5/fj35QCfy6m0Y3E2GomL0XRjs2iS3m5Ho9Cdxd+Rr3m77bi3L5vJa2hniS/hOkfGSK3gQXLTtuvL8Kq73zFEOhRHhuNGM89eHLq+l9i2hl4w+vytQQMmXpf3IOLFLLlejcb2tX1rL88WXqmOWztUq00cCce9mXnS9OXdxe2kZXz9AmRb7HQ66R+l4aP8OnZsJ44v/zI8eyg949Bw5Niee7GYhcHY9aTRXlqu7o1Dy+y0jVvbm0vjcPfAPHhy7B+0jZHKOYmHJI0MBicnxkO7ktfuWrz21uJ1Zy1e+2vxursWr3tr8bq/Fq8Ha/Fqddbjdj3RZa0nvKz1xJe1ngCz1hNh1npCzFpPjFnrCTJrPVHWXU+Udde0h60nyrrribLuClEmovnNzbOf8a5RIYTS0XBacWz1nFYcWT2nFcdVz2nF3KXntGLm0nNaMW/pOa2YtfScVsxZek6rFgaaXtcSU1XLAk2va4mqqkWBpte1xFXVkkDT61oiq2pBoOl1LbFVtRzQ9Lqe/WotsVW1FtD0Wje27lw/XrUMGKoXVPdacVg1vVYcVk2vFYdV02vFlKXptWLK0vRaMWVpeq2YsjS9VkxZml6r1gO6btcTXVUrAl2364mvqjWBrtv1RFjVqkDX7XpirGpdoOt2PVFWtTLQdbumPWw9UVa1ONB1qxVln6p84JB9NiiOhC/v8g800s8xWtHtpJ1+IFH6yUX+AWMk4x+Cue9ErX6nLSyr3xY99bduv9qnH/cJxuPnpo4zsGM5CcLF8b0bLT+gexyKCp9iJg7OQkeG53P1eVnlCxXH4jnHe2lH81AuMdRHftkUrPq5bPpB0nOpCxm6MspwE6VsQmZeEJvq061Syeil+y4njcx03c0Cz47dwE+gjCiWs62hHAehNKqtpF/kRPrO8xtanmvtJqugp1aC+jDMUn9kH3uWfiKcuzWvJjI+8WM1PonEeO6PUtLWpvirwueeilA+Xn1ZGhvqcMeiFU/dKFnX6rpqQup4cpGZjN+JPZq2/gbW9ZbjZ58NZn6vZkHkKofvktNV7iY/lJsXqMLgTg8px3J9R6rA3bLamlfnx3XdC8eu9NR6a2VjuoyTSRjMZ9IRb96Ir7Lz9+bV1I6yfKICbPOpdfGiNRkQ055MTpWG6Ul/Ek/FW9EV3wvj2PMMcfj8FZHnjmRry9q87HzaLI23L+4kCEXrOrmVzrfiOpHJlmqmq859cyQs/QlSh1rGmb/L60/mZ5mkt6Oj5eDV85h6zab9WvdW82MYSvtznYsfNK/Rfb0ar+zujtSyVoshWynpxmheLb/TI530Wz3RZTqSn+oNZT7Rs3k0bdWdi2RKD5fzWT+SPO+wyl2a6pV1VaI4DD7LajrL19ZVCmb2yI0X1aSyF9e+q1Qil6rrJU8kz9NKnfDQTj7qyMP5eeIRW8LS9aYTbtVZH9rprlrp9Q9lNYU6trfFbx8/iD/PPp6Li7PzDz//+qP45ezHnwfip5Pzk2oOTpOsLe9tVaKJOBBRkBTS/vwmWQcjkZaIkbCjUVK8uP6kgsd87JWfJzuz3RbD6skllPE89MXMDiN56gV23LJVyt9MpvLJuWF6rtJglpdoT2SzWyhz/PAvfPfyHx/AZl+wVB+o/itfBQUOcIADHOAABzjAAQ5wgAOcV4/z5RdcFFEoHdCABjSgAQ1oQAMa0IAGNKABTTHNF18JVDTqK37AAQ5wgAMc4AAHOMABDnCAA5x/sePhB3kzk6Edz0MpWqeb6Hn4P9Xz8A9brbifZPqf45uhK/1YqClTnQ+lM0/Gf0vsdU5fSRNE6zU0QbQaa4KYPnpatwkTk58ek58dJj99Jj+7TH72mPzsM/k5YPLzrLvASo64VrTFtaQtrjVtcS1qi2tVW1zL2uJa1xbXwra4VnaXa2V32XI118rucq3srtbKrt6075mr+m36VnBDjlD9VnwruCHjvn67vRXckDFfv6XeCm7IeF+hbd4qfpjWMb2NrdAMbxU/TEuZ3sNWaHG3ih+m1UxvYCs0rlslDzKtZ3r3WqEd3Sp+mNYzvXXVbzL3zM0KbeVW8UMOzwqt41bxQ4b7Cu3hVvFDhvsKLeBW8UOG+ypt3lZyxLWi6R1sleZtKzniWtT0JrZKS7aVHHGta3ofW6XR2kqZkWtl01vZKu3TVnLEtbLp3QxN0V5FUzSYYYYZZphhhhlmmGGGGWaYYYYZZpj/l8wLM7iVYeg68r2t3qiyzA6a4j+5EzTFfzzQFF/rQFN8NMXXONAU/58HmuL/80BTfM0DTfHRFP/FA03xgQMc4AAHOMABDnCAAxzgAAc4r6GlJGhAAxrQgAY0oAENaEADGtC8Hpr/b1pZAgc4wAEOcIADHOAABzjAAU59vX+hKf4790b6kRv4nowitMT/32qJH4Sfxcl47I5c6Y8Wj43wm22Bn736H5an/5//ffnfR+/ZXx7/MwychfrvNL7xvvt//wfpjyqT"
               },
               {
                  "name" : "annual_peak_electric_demand",
                  "units" : "kW",
                  "value" : 120.22766
               },
               {
                  "name" : "first_year_capital_cost",
                  "units" : "$",
                  "value" : 0
               },
               {
                  "name" : "annual_utility_cost",
                  "units" : "$",
                  "value" : 55331.880000000005
               },
               {
                  "name" : "total_lifecycle_cost",
                  "units" : "$",
                  "value" : 940611.57999999996
               }
            ],
            "step_warnings" : []
         }
      }
   ],
   "updated_at" : "20170710T193013Z",
   "weather_file" : "USA_CO_Denver.Intl.AP.725650_TMY3.epw"
}
