{
   "completed_at" : "20170710T192528Z",
   "completed_status" : "Success",
   "created_at" : "2017-07-10 19:20:54 +0000",
   "current_step" : 5,
   "description" : "",
   "eplusout_err" : "Program Version,EnergyPlus, Version 8.7.0-78a111df4a, YMD=2017.07.10 19:22,IDD_Version 8.7.0\n   ************* IDF Context for following error/warning message:\n   ************* Note -- lines truncated at 300 characters, if necessary...\n   *************      5 Building,\n   ************* indicated Name=NECB 2011-MidriseApartment-NECB HDD Method-CAN_PQ_Sherbrooke.716100_CWEC.epw created: 2017-07-10 19:21:00 +0000\n   ************* Only last 1 lines before error line shown.....\n   *************      6   NECB 2011-MidriseApartment-NECB HDD Method-CAN_PQ_Sherbrooke.716100_CWEC.epw created: 2017-07-10 19:21:00 +0000, !- Name\n   ** Warning ** IP: IDF line~6 Alpha Argument length exceeds maximum, will be truncated=  NECB 2011-MidriseApartment-NECB HDD Method-CAN_PQ_Sherbrooke.716100_CWEC.epw created: 2017-07-10 19:21:00 +000\n   **   ~~~   ** Will be processed as Alpha=NECB 2011-MIDRISEAPARTMENT-NECB HDD METHOD-CAN_PQ_SHERBROOKE.716100_CWEC.EPW CREATED: 2017-07-10 19:21:00 +0000\n   ************* Beginning Zone Sizing Calculations\n   ** Warning ** ProcessScheduleInput: Schedule:Day:Interval=\"ECONOMIZER MAX OA FRACTION 100 PCT DEFAULT\", Blank Schedule Type Limits Name input -- will not be validated.\n   ** Warning ** ProcessScheduleInput: Schedule:Day:Interval=\"SCHEDULE DAY 1\", Blank Schedule Type Limits Name input -- will not be validated.\n   ** Warning ** ProcessScheduleInput: Schedule:Day:Interval=\"SCHEDULE DAY 10\", Blank Schedule Type Limits Name input -- will not be validated.\n   ** Warning ** ProcessScheduleInput: Schedule:Day:Interval=\"SCHEDULE DAY 11\", Blank Schedule Type Limits Name input -- will not be validated.\n   ** Warning ** ProcessScheduleInput: Schedule:Day:Interval=\"SCHEDULE DAY 12\", Blank Schedule Type Limits Name input -- will not be validated.\n   ** Warning ** ProcessScheduleInput: Schedule:Day:Interval=\"SCHEDULE DAY 13\", Blank Schedule Type Limits Name input -- will not be validated.\n   ** Warning ** ProcessScheduleInput: Schedule:Day:Interval=\"SCHEDULE DAY 14\", Blank Schedule Type Limits Name input -- will not be validated.\n   ** Warning ** ProcessScheduleInput: Schedule:Day:Interval=\"SCHEDULE DAY 15\", Blank Schedule Type Limits Name input -- will not be validated.\n   ** Warning ** ProcessScheduleInput: Schedule:Day:Interval=\"SCHEDULE DAY 16\", Blank Schedule Type Limits Name input -- will not be validated.\n   ** Warning ** ProcessScheduleInput: Schedule:Day:Interval=\"SCHEDULE DAY 17\", Blank Schedule Type Limits Name input -- will not be validated.\n   ** Warning ** ProcessScheduleInput: Schedule:Day:Interval=\"SCHEDULE DAY 18\", Blank Schedule Type Limits Name input -- will not be validated.\n   ** Warning ** ProcessScheduleInput: Schedule:Day:Interval=\"SCHEDULE DAY 19\", Blank Schedule Type Limits Name input -- will not be validated.\n   ** Warning ** ProcessScheduleInput: Schedule:Day:Interval=\"SCHEDULE DAY 2\", Blank Schedule Type Limits Name input -- will not be validated.\n   ** Warning ** ProcessScheduleInput: Schedule:Day:Interval=\"SCHEDULE DAY 20\", Blank Schedule Type Limits Name input -- will not be validated.\n   ** Warning ** ProcessScheduleInput: Schedule:Day:Interval=\"SCHEDULE DAY 21\", Blank Schedule Type Limits Name input -- will not be validated.\n   ** Warning ** ProcessScheduleInput: Schedule:Day:Interval=\"SCHEDULE DAY 22\", Blank Schedule Type Limits Name input -- will not be validated.\n   ** Warning ** ProcessScheduleInput: Schedule:Day:Interval=\"SCHEDULE DAY 23\", Blank Schedule Type Limits Name input -- will not be validated.\n   ** Warning ** ProcessScheduleInput: Schedule:Day:Interval=\"SCHEDULE DAY 24\", Blank Schedule Type Limits Name input -- will not be validated.\n   ** Warning ** ProcessScheduleInput: Schedule:Day:Interval=\"SCHEDULE DAY 25\", Blank Schedule Type Limits Name input -- will not be validated.\n   ** Warning ** ProcessScheduleInput: Schedule:Day:Interval=\"SCHEDULE DAY 26\", Blank Schedule Type Limits Name input -- will not be validated.\n   ** Warning ** ProcessScheduleInput: Schedule:Day:Interval=\"SCHEDULE DAY 27\", Blank Schedule Type Limits Name input -- will not be validated.\n   ** Warning ** ProcessScheduleInput: Schedule:Day:Interval=\"SCHEDULE DAY 28\", Blank Schedule Type Limits Name input -- will not be validated.\n   ** Warning ** ProcessScheduleInput: Schedule:Day:Interval=\"SCHEDULE DAY 29\", Blank Schedule Type Limits Name input -- will not be validated.\n   ** Warning ** ProcessScheduleInput: Schedule:Day:Interval=\"SCHEDULE DAY 30\", Blank Schedule Type Limits Name input -- will not be validated.\n   ** Warning ** ProcessScheduleInput: Schedule:Day:Interval=\"SCHEDULE DAY 31\", Blank Schedule Type Limits Name input -- will not be validated.\n   ** Warning ** ProcessScheduleInput: Schedule:Day:Interval=\"SCHEDULE DAY 32\", Blank Schedule Type Limits Name input -- will not be validated.\n   ** Warning ** ProcessScheduleInput: Schedule:Day:Interval=\"SCHEDULE DAY 33\", Blank Schedule Type Limits Name input -- will not be validated.\n   ** Warning ** ProcessScheduleInput: Schedule:Day:Interval=\"SCHEDULE DAY 34\", Blank Schedule Type Limits Name input -- will not be validated.\n   ** Warning ** ProcessScheduleInput: Schedule:Day:Interval=\"SCHEDULE DAY 35\", Blank Schedule Type Limits Name input -- will not be validated.\n   ** Warning ** ProcessScheduleInput: Schedule:Day:Interval=\"SCHEDULE DAY 36\", Blank Schedule Type Limits Name input -- will not be validated.\n   ** Warning ** ProcessScheduleInput: Schedule:Day:Interval=\"SCHEDULE DAY 37\", Blank Schedule Type Limits Name input -- will not be validated.\n   ** Warning ** ProcessScheduleInput: Schedule:Day:Interval=\"SCHEDULE DAY 38\", Blank Schedule Type Limits Name input -- will not be validated.\n   ** Warning ** ProcessScheduleInput: Schedule:Day:Interval=\"SCHEDULE DAY 39\", Blank Schedule Type Limits Name input -- will not be validated.\n   ** Warning ** ProcessScheduleInput: Schedule:Day:Interval=\"SCHEDULE DAY 40\", Blank Schedule Type Limits Name input -- will not be validated.\n   ** Warning ** ProcessScheduleInput: Schedule:Day:Interval=\"SCHEDULE DAY 41\", Blank Schedule Type Limits Name input -- will not be validated.\n   ** Warning ** ProcessScheduleInput: Schedule:Day:Interval=\"SCHEDULE DAY 42\", Blank Schedule Type Limits Name input -- will not be validated.\n   ** Warning ** ProcessScheduleInput: Schedule:Day:Interval=\"SCHEDULE DAY 43\", Blank Schedule Type Limits Name input -- will not be validated.\n   ** Warning ** ProcessScheduleInput: Schedule:Day:Interval=\"SCHEDULE DAY 44\", Blank Schedule Type Limits Name input -- will not be validated.\n   ** Warning ** ProcessScheduleInput: Schedule:Day:Interval=\"SCHEDULE DAY 45\", Blank Schedule Type Limits Name input -- will not be validated.\n   ** Warning ** ProcessScheduleInput: Schedule:Day:Interval=\"SCHEDULE DAY 46\", Blank Schedule Type Limits Name input -- will not be validated.\n   ** Warning ** ProcessScheduleInput: Schedule:Day:Interval=\"SCHEDULE DAY 47\", Blank Schedule Type Limits Name input -- will not be validated.\n   ** Warning ** ProcessScheduleInput: Schedule:Day:Interval=\"SCHEDULE DAY 48\", Blank Schedule Type Limits Name input -- will not be validated.\n   ** Warning ** ProcessScheduleInput: Schedule:Day:Interval=\"SCHEDULE DAY 49\", Blank Schedule Type Limits Name input -- will not be validated.\n   ** Warning ** ProcessScheduleInput: Schedule:Day:Interval=\"SCHEDULE DAY 50\", Blank Schedule Type Limits Name input -- will not be validated.\n   ** Warning ** ProcessScheduleInput: Schedule:Day:Interval=\"SCHEDULE DAY 51\", Blank Schedule Type Limits Name input -- will not be validated.\n   ** Warning ** ProcessScheduleInput: Schedule:Day:Interval=\"SCHEDULE DAY 52\", Blank Schedule Type Limits Name input -- will not be validated.\n   ** Warning ** ProcessScheduleInput: Schedule:Day:Interval=\"SCHEDULE DAY 53\", Blank Schedule Type Limits Name input -- will not be validated.\n   ** Warning ** ProcessScheduleInput: Schedule:Day:Interval=\"SCHEDULE DAY 54\", Blank Schedule Type Limits Name input -- will not be validated.\n   ** Warning ** ProcessScheduleInput: Schedule:Day:Interval=\"SCHEDULE DAY 55\", Blank Schedule Type Limits Name input -- will not be validated.\n   ** Warning ** ProcessScheduleInput: Schedule:Day:Interval=\"SCHEDULE DAY 56\", Blank Schedule Type Limits Name input -- will not be validated.\n   ** Warning ** ProcessScheduleInput: Schedule:Day:Interval=\"SCHEDULE DAY 57\", Blank Schedule Type Limits Name input -- will not be validated.\n   ** Warning ** ProcessScheduleInput: Schedule:Day:Interval=\"SCHEDULE DAY 58\", Blank Schedule Type Limits Name input -- will not be validated.\n   ** Warning ** ProcessScheduleInput: Schedule:Day:Interval=\"SCHEDULE DAY 59\", Blank Schedule Type Limits Name input -- will not be validated.\n   ** Warning ** ProcessScheduleInput: Schedule:Day:Interval=\"SCHEDULE DAY 6\", Blank Schedule Type Limits Name input -- will not be validated.\n   ** Warning ** ProcessScheduleInput: Schedule:Day:Interval=\"SCHEDULE DAY 60\", Blank Schedule Type Limits Name input -- will not be validated.\n   ** Warning ** ProcessScheduleInput: Schedule:Day:Interval=\"SCHEDULE DAY 61\", Blank Schedule Type Limits Name input -- will not be validated.\n   ** Warning ** ProcessScheduleInput: Schedule:Day:Interval=\"SCHEDULE DAY 62\", Blank Schedule Type Limits Name input -- will not be validated.\n   ** Warning ** ProcessScheduleInput: Schedule:Day:Interval=\"SCHEDULE DAY 63\", Blank Schedule Type Limits Name input -- will not be validated.\n   ** Warning ** ProcessScheduleInput: Schedule:Day:Interval=\"SCHEDULE DAY 64\", Blank Schedule Type Limits Name input -- will not be validated.\n   ** Warning ** ProcessScheduleInput: Schedule:Day:Interval=\"SCHEDULE DAY 65\", Blank Schedule Type Limits Name input -- will not be validated.\n   ** Warning ** ProcessScheduleInput: Schedule:Day:Interval=\"SCHEDULE DAY 66\", Blank Schedule Type Limits Name input -- will not be validated.\n   ** Warning ** ProcessScheduleInput: Schedule:Day:Interval=\"SCHEDULE DAY 67\", Blank Schedule Type Limits Name input -- will not be validated.\n   ** Warning ** ProcessScheduleInput: Schedule:Day:Interval=\"SCHEDULE DAY 68\", Blank Schedule Type Limits Name input -- will not be validated.\n   ** Warning ** ProcessScheduleInput: Schedule:Day:Interval=\"SCHEDULE DAY 69\", Blank Schedule Type Limits Name input -- will not be validated.\n   ** Warning ** ProcessScheduleInput: Schedule:Day:Interval=\"SCHEDULE DAY 7\", Blank Schedule Type Limits Name input -- will not be validated.\n   ** Warning ** ProcessScheduleInput: Schedule:Day:Interval=\"SCHEDULE DAY 70\", Blank Schedule Type Limits Name input -- will not be validated.\n   ** Warning ** ProcessScheduleInput: Schedule:Day:Interval=\"SCHEDULE DAY 71\", Blank Schedule Type Limits Name input -- will not be validated.\n   ** Warning ** ProcessScheduleInput: Schedule:Day:Interval=\"SCHEDULE DAY 72\", Blank Schedule Type Limits Name input -- will not be validated.\n   ** Warning ** ProcessScheduleInput: Schedule:Day:Interval=\"SCHEDULE DAY 73\", Blank Schedule Type Limits Name input -- will not be validated.\n   ** Warning ** ProcessScheduleInput: Schedule:Day:Interval=\"SCHEDULE DAY 74\", Blank Schedule Type Limits Name input -- will not be validated.\n   ** Warning ** ProcessScheduleInput: Schedule:Day:Interval=\"SCHEDULE DAY 75\", Blank Schedule Type Limits Name input -- will not be validated.\n   ** Warning ** ProcessScheduleInput: Schedule:Day:Interval=\"SCHEDULE DAY 76\", Blank Schedule Type Limits Name input -- will not be validated.\n   ** Warning ** ProcessScheduleInput: Schedule:Day:Interval=\"SCHEDULE DAY 77\", Blank Schedule Type Limits Name input -- will not be validated.\n   ** Warning ** ProcessScheduleInput: Schedule:Day:Interval=\"SCHEDULE DAY 78\", Blank Schedule Type Limits Name input -- will not be validated.\n   ** Warning ** ProcessScheduleInput: Schedule:Day:Interval=\"SCHEDULE DAY 79\", Blank Schedule Type Limits Name input -- will not be validated.\n   ** Warning ** ProcessScheduleInput: Schedule:Day:Interval=\"SCHEDULE DAY 8\", Blank Schedule Type Limits Name input -- will not be validated.\n   ** Warning ** ProcessScheduleInput: Schedule:Day:Interval=\"SCHEDULE DAY 9\", Blank Schedule Type Limits Name input -- will not be validated.\n   ** Warning ** ProcessScheduleInput: Schedule:Year=\"ECONOMIZER MAX OA FRACTION 100 PCT\", Blank Schedule Type Limits Name input -- will not be validated.\n   ** Warning ** ProcessScheduleInput: Schedule:Year=\"SCHEDULE RULESET 10\", Blank Schedule Type Limits Name input -- will not be validated.\n   ** Warning ** ProcessScheduleInput: Schedule:Year=\"SCHEDULE RULESET 11\", Blank Schedule Type Limits Name input -- will not be validated.\n   ** Warning ** ProcessScheduleInput: Schedule:Year=\"SCHEDULE RULESET 12\", Blank Schedule Type Limits Name input -- will not be validated.\n   ** Warning ** ProcessScheduleInput: Schedule:Year=\"SCHEDULE RULESET 13\", Blank Schedule Type Limits Name input -- will not be validated.\n   ** Warning ** ProcessScheduleInput: Schedule:Year=\"SCHEDULE RULESET 14\", Blank Schedule Type Limits Name input -- will not be validated.\n   ** Warning ** ProcessScheduleInput: Schedule:Year=\"SCHEDULE RULESET 15\", Blank Schedule Type Limits Name input -- will not be validated.\n   ** Warning ** ProcessScheduleInput: Schedule:Year=\"SCHEDULE RULESET 16\", Blank Schedule Type Limits Name input -- will not be validated.\n   ** Warning ** ProcessScheduleInput: Schedule:Year=\"SCHEDULE RULESET 17\", Blank Schedule Type Limits Name input -- will not be validated.\n   ** Warning ** ProcessScheduleInput: Schedule:Year=\"SCHEDULE RULESET 18\", Blank Schedule Type Limits Name input -- will not be validated.\n   ** Warning ** ProcessScheduleInput: Schedule:Year=\"SCHEDULE RULESET 19\", Blank Schedule Type Limits Name input -- will not be validated.\n   ** Warning ** ProcessScheduleInput: Schedule:Year=\"SCHEDULE RULESET 20\", Blank Schedule Type Limits Name input -- will not be validated.\n   ** Warning ** ProcessScheduleInput: Schedule:Year=\"SCHEDULE RULESET 21\", Blank Schedule Type Limits Name input -- will not be validated.\n   ** Warning ** ProcessScheduleInput: Schedule:Year=\"SCHEDULE RULESET 22\", Blank Schedule Type Limits Name input -- will not be validated.\n   ** Warning ** ProcessScheduleInput: Schedule:Year=\"SCHEDULE RULESET 23\", Blank Schedule Type Limits Name input -- will not be validated.\n   ** Warning ** ProcessScheduleInput: Schedule:Year=\"SCHEDULE RULESET 24\", Blank Schedule Type Limits Name input -- will not be validated.\n   ** Warning ** ProcessScheduleInput: Schedule:Year=\"SCHEDULE RULESET 25\", Blank Schedule Type Limits Name input -- will not be validated.\n   ** Warning ** ProcessScheduleInput: Schedule:Year=\"SCHEDULE RULESET 26\", Blank Schedule Type Limits Name input -- will not be validated.\n   ** Warning ** ProcessScheduleInput: Schedule:Year=\"SCHEDULE RULESET 27\", Blank Schedule Type Limits Name input -- will not be validated.\n   ** Warning ** ProcessScheduleInput: Schedule:Year=\"SCHEDULE RULESET 28\", Blank Schedule Type Limits Name input -- will not be validated.\n   ** Warning ** ProcessScheduleInput: Schedule:Year=\"SCHEDULE RULESET 29\", Blank Schedule Type Limits Name input -- will not be validated.\n   ** Warning ** ProcessScheduleInput: Schedule:Year=\"SCHEDULE RULESET 3\", Blank Schedule Type Limits Name input -- will not be validated.\n   ** Warning ** ProcessScheduleInput: Schedule:Year=\"SCHEDULE RULESET 30\", Blank Schedule Type Limits Name input -- will not be validated.\n   ** Warning ** ProcessScheduleInput: Schedule:Year=\"SCHEDULE RULESET 31\", Blank Schedule Type Limits Name input -- will not be validated.\n   ** Warning ** ProcessScheduleInput: Schedule:Year=\"SCHEDULE RULESET 32\", Blank Schedule Type Limits Name input -- will not be validated.\n   ** Warning ** ProcessScheduleInput: Schedule:Year=\"SCHEDULE RULESET 33\", Blank Schedule Type Limits Name input -- will not be validated.\n   ** Warning ** ProcessScheduleInput: Schedule:Year=\"SCHEDULE RULESET 34\", Blank Schedule Type Limits Name input -- will not be validated.\n   ** Warning ** ProcessScheduleInput: Schedule:Year=\"SCHEDULE RULESET 35\", Blank Schedule Type Limits Name input -- will not be validated.\n   ** Warning ** ProcessScheduleInput: Schedule:Year=\"SCHEDULE RULESET 36\", Blank Schedule Type Limits Name input -- will not be validated.\n   ** Warning ** ProcessScheduleInput: Schedule:Year=\"SCHEDULE RULESET 37\", Blank Schedule Type Limits Name input -- will not be validated.\n   ** Warning ** ProcessScheduleInput: Schedule:Year=\"SCHEDULE RULESET 38\", Blank Schedule Type Limits Name input -- will not be validated.\n   ** Warning ** ProcessScheduleInput: Schedule:Year=\"SCHEDULE RULESET 39\", Blank Schedule Type Limits Name input -- will not be validated.\n   ** Warning ** ProcessScheduleInput: Schedule:Year=\"SCHEDULE RULESET 4\", Blank Schedule Type Limits Name input -- will not be validated.\n   ** Warning ** ProcessScheduleInput: Schedule:Year=\"SCHEDULE RULESET 40\", Blank Schedule Type Limits Name input -- will not be validated.\n   ** Warning ** ProcessScheduleInput: Schedule:Year=\"SCHEDULE RULESET 41\", Blank Schedule Type Limits Name input -- will not be validated.\n   ** Warning ** ProcessScheduleInput: Schedule:Year=\"SCHEDULE RULESET 42\", Blank Schedule Type Limits Name input -- will not be validated.\n   ** Warning ** ProcessScheduleInput: Schedule:Year=\"SCHEDULE RULESET 43\", Blank Schedule Type Limits Name input -- will not be validated.\n   ** Warning ** ProcessScheduleInput: Schedule:Year=\"SCHEDULE RULESET 44\", Blank Schedule Type Limits Name input -- will not be validated.\n   ** Warning ** ProcessScheduleInput: Schedule:Year=\"SCHEDULE RULESET 45\", Blank Schedule Type Limits Name input -- will not be validated.\n   ** Warning ** ProcessScheduleInput: Schedule:Year=\"SCHEDULE RULESET 46\", Blank Schedule Type Limits Name input -- will not be validated.\n   ** Warning ** ProcessScheduleInput: Schedule:Year=\"SCHEDULE RULESET 47\", Blank Schedule Type Limits Name input -- will not be validated.\n   ** Warning ** ProcessScheduleInput: Schedule:Year=\"SCHEDULE RULESET 48\", Blank Schedule Type Limits Name input -- will not be validated.\n   ** Warning ** ProcessScheduleInput: Schedule:Year=\"SCHEDULE RULESET 49\", Blank Schedule Type Limits Name input -- will not be validated.\n   ** Warning ** ProcessScheduleInput: Schedule:Year=\"SCHEDULE RULESET 5\", Blank Schedule Type Limits Name input -- will not be validated.\n   ** Warning ** ProcessScheduleInput: Schedule:Year=\"SCHEDULE RULESET 50\", Blank Schedule Type Limits Name input -- will not be validated.\n   ** Warning ** ProcessScheduleInput: Schedule:Year=\"SCHEDULE RULESET 51\", Blank Schedule Type Limits Name input -- will not be validated.\n   ** Warning ** ProcessScheduleInput: Schedule:Year=\"SCHEDULE RULESET 52\", Blank Schedule Type Limits Name input -- will not be validated.\n   ** Warning ** ProcessScheduleInput: Schedule:Year=\"SCHEDULE RULESET 53\", Blank Schedule Type Limits Name input -- will not be validated.\n   ** Warning ** ProcessScheduleInput: Schedule:Year=\"SCHEDULE RULESET 54\", Blank Schedule Type Limits Name input -- will not be validated.\n   ** Warning ** ProcessScheduleInput: Schedule:Year=\"SCHEDULE RULESET 55\", Blank Schedule Type Limits Name input -- will not be validated.\n   ** Warning ** ProcessScheduleInput: Schedule:Year=\"SCHEDULE RULESET 56\", Blank Schedule Type Limits Name input -- will not be validated.\n   ** Warning ** ProcessScheduleInput: Schedule:Year=\"SCHEDULE RULESET 57\", Blank Schedule Type Limits Name input -- will not be validated.\n   ** Warning ** ProcessScheduleInput: Schedule:Year=\"SCHEDULE RULESET 58\", Blank Schedule Type Limits Name input -- will not be validated.\n   ** Warning ** ProcessScheduleInput: Schedule:Year=\"SCHEDULE RULESET 59\", Blank Schedule Type Limits Name input -- will not be validated.\n   ** Warning ** ProcessScheduleInput: Schedule:Year=\"SCHEDULE RULESET 6\", Blank Schedule Type Limits Name input -- will not be validated.\n   ** Warning ** ProcessScheduleInput: Schedule:Year=\"SCHEDULE RULESET 60\", Blank Schedule Type Limits Name input -- will not be validated.\n   ** Warning ** ProcessScheduleInput: Schedule:Year=\"SCHEDULE RULESET 61\", Blank Schedule Type Limits Name input -- will not be validated.\n   ** Warning ** ProcessScheduleInput: Schedule:Year=\"SCHEDULE RULESET 62\", Blank Schedule Type Limits Name input -- will not be validated.\n   ** Warning ** ProcessScheduleInput: Schedule:Year=\"SCHEDULE RULESET 63\", Blank Schedule Type Limits Name input -- will not be validated.\n   ** Warning ** ProcessScheduleInput: Schedule:Year=\"SCHEDULE RULESET 64\", Blank Schedule Type Limits Name input -- will not be validated.\n   ** Warning ** ProcessScheduleInput: Schedule:Year=\"SCHEDULE RULESET 65\", Blank Schedule Type Limits Name input -- will not be validated.\n   ** Warning ** ProcessScheduleInput: Schedule:Year=\"SCHEDULE RULESET 66\", Blank Schedule Type Limits Name input -- will not be validated.\n   ** Warning ** ProcessScheduleInput: Schedule:Year=\"SCHEDULE RULESET 67\", Blank Schedule Type Limits Name input -- will not be validated.\n   ** Warning ** ProcessScheduleInput: Schedule:Year=\"SCHEDULE RULESET 68\", Blank Schedule Type Limits Name input -- will not be validated.\n   ** Warning ** ProcessScheduleInput: Schedule:Year=\"SCHEDULE RULESET 69\", Blank Schedule Type Limits Name input -- will not be validated.\n   ** Warning ** ProcessScheduleInput: Schedule:Year=\"SCHEDULE RULESET 7\", Blank Schedule Type Limits Name input -- will not be validated.\n   ** Warning ** ProcessScheduleInput: Schedule:Year=\"SCHEDULE RULESET 70\", Blank Schedule Type Limits Name input -- will not be validated.\n   ** Warning ** ProcessScheduleInput: Schedule:Year=\"SCHEDULE RULESET 71\", Blank Schedule Type Limits Name input -- will not be validated.\n   ** Warning ** ProcessScheduleInput: Schedule:Year=\"SCHEDULE RULESET 72\", Blank Schedule Type Limits Name input -- will not be validated.\n   ** Warning ** ProcessScheduleInput: Schedule:Year=\"SCHEDULE RULESET 73\", Blank Schedule Type Limits Name input -- will not be validated.\n   ** Warning ** ProcessScheduleInput: Schedule:Year=\"SCHEDULE RULESET 74\", Blank Schedule Type Limits Name input -- will not be validated.\n   ** Warning ** ProcessScheduleInput: Schedule:Year=\"SCHEDULE RULESET 8\", Blank Schedule Type Limits Name input -- will not be validated.\n   ** Warning ** ProcessScheduleInput: Schedule:Year=\"SCHEDULE RULESET 9\", Blank Schedule Type Limits Name input -- will not be validated.\n   ** Warning ** ProcessScheduleInput: Schedule:Constant=\"ALWAYS OFF DISCRETE\", Blank Schedule Type Limits Name input -- will not be validated.\n   ** Warning ** ProcessScheduleInput: Schedule:Constant=\"ALWAYS ON CONTINUOUS\", Blank Schedule Type Limits Name input -- will not be validated.\n   ** Warning ** CheckUsedConstructions: There are 26 nominally unused constructions in input.\n   **   ~~~   ** For explicit details on each unused construction, use Output:Diagnostics,DisplayExtraWarnings;\n   ************* Beginning System Sizing Calculations\n   ** Warning ** GetDXCoils: Coil:Cooling:DX:SingleSpeed=\"COIL COOLING DX SINGLE SPEED 24 7KBTU/HR 11.0EER\", invalid\n   **   ~~~   ** ...Part Load Fraction Correlation Curve Name = DXCOOL-NECB2011-REF-COOLPLFFPLR 16 has out of range value.\n   **   ~~~   ** ...Curve maximum must be <= 1.0, curve max at PLR = 0.99 is 1.015\n   **   ~~~   ** ...Setting curve maximum to 1.0 and simulation continues.\n   ** Warning ** GetDXCoils: Coil:Cooling:DX:SingleSpeed=\"COIL COOLING DX SINGLE SPEED 22 5KBTU/HR 11.0EER\", invalid\n   **   ~~~   ** ...Part Load Fraction Correlation Curve Name = DXCOOL-NECB2011-REF-COOLPLFFPLR 14 has out of range value.\n   **   ~~~   ** ...Curve maximum must be <= 1.0, curve max at PLR = 0.99 is 1.015\n   **   ~~~   ** ...Setting curve maximum to 1.0 and simulation continues.\n   ** Warning ** GetDXCoils: Coil:Cooling:DX:SingleSpeed=\"COIL COOLING DX SINGLE SPEED 21 5KBTU/HR 11.0EER\", invalid\n   **   ~~~   ** ...Part Load Fraction Correlation Curve Name = DXCOOL-NECB2011-REF-COOLPLFFPLR 13 has out of range value.\n   **   ~~~   ** ...Curve maximum must be <= 1.0, curve max at PLR = 0.99 is 1.015\n   **   ~~~   ** ...Setting curve maximum to 1.0 and simulation continues.\n   ** Warning ** GetDXCoils: Coil:Cooling:DX:SingleSpeed=\"COIL COOLING DX SINGLE SPEED 23 9KBTU/HR 10.6EER\", invalid\n   **   ~~~   ** ...Part Load Fraction Correlation Curve Name = DXCOOL-NECB2011-REF-COOLPLFFPLR 15 has out of range value.\n   **   ~~~   ** ...Curve maximum must be <= 1.0, curve max at PLR = 0.99 is 1.015\n   **   ~~~   ** ...Setting curve maximum to 1.0 and simulation continues.\n   ** Warning ** GetDXCoils: Coil:Cooling:DX:SingleSpeed=\"COIL COOLING DX SINGLE SPEED 20 9KBTU/HR 10.6EER\", invalid\n   **   ~~~   ** ...Part Load Fraction Correlation Curve Name = DXCOOL-NECB2011-REF-COOLPLFFPLR 12 has out of range value.\n   **   ~~~   ** ...Curve maximum must be <= 1.0, curve max at PLR = 0.99 is 1.015\n   **   ~~~   ** ...Setting curve maximum to 1.0 and simulation continues.\n   ** Warning ** GetDXCoils: Coil:Cooling:DX:SingleSpeed=\"COIL COOLING DX SINGLE SPEED 25 6KBTU/HR 11.0EER\", invalid\n   **   ~~~   ** ...Part Load Fraction Correlation Curve Name = DXCOOL-NECB2011-REF-COOLPLFFPLR 17 has out of range value.\n   **   ~~~   ** ...Curve maximum must be <= 1.0, curve max at PLR = 0.99 is 1.015\n   **   ~~~   ** ...Setting curve maximum to 1.0 and simulation continues.\n   ** Warning ** GetDXCoils: Coil:Cooling:DX:SingleSpeed=\"COIL COOLING DX SINGLE SPEED 26 7KBTU/HR 11.0EER\", invalid\n   **   ~~~   ** ...Part Load Fraction Correlation Curve Name = DXCOOL-NECB2011-REF-COOLPLFFPLR 18 has out of range value.\n   **   ~~~   ** ...Curve maximum must be <= 1.0, curve max at PLR = 0.99 is 1.015\n   **   ~~~   ** ...Setting curve maximum to 1.0 and simulation continues.\n   ** Warning ** GetDXCoils: Coil:Cooling:DX:SingleSpeed=\"COIL COOLING DX SINGLE SPEED 27 9KBTU/HR 10.5EER\", invalid\n   **   ~~~   ** ...Part Load Fraction Correlation Curve Name = DXCOOL-NECB2011-REF-COOLPLFFPLR 19 has out of range value.\n   **   ~~~   ** ...Curve maximum must be <= 1.0, curve max at PLR = 0.99 is 1.015\n   **   ~~~   ** ...Setting curve maximum to 1.0 and simulation continues.\n   ** Warning ** GetDXCoils: Coil:Cooling:DX:SingleSpeed=\"COIL COOLING DX SINGLE SPEED 6 7KBTU/HR 11.0EER\", invalid\n   **   ~~~   ** ...Part Load Fraction Correlation Curve Name = DXCOOL-NECB2011-REF-COOLPLFFPLR 24 has out of range value.\n   **   ~~~   ** ...Curve maximum must be <= 1.0, curve max at PLR = 0.99 is 1.015\n   **   ~~~   ** ...Setting curve maximum to 1.0 and simulation continues.\n   ** Warning ** GetDXCoils: Coil:Cooling:DX:SingleSpeed=\"COIL COOLING DX SINGLE SPEED 4 5KBTU/HR 11.0EER\", invalid\n   **   ~~~   ** ...Part Load Fraction Correlation Curve Name = DXCOOL-NECB2011-REF-COOLPLFFPLR 22 has out of range value.\n   **   ~~~   ** ...Curve maximum must be <= 1.0, curve max at PLR = 0.99 is 1.015\n   **   ~~~   ** ...Setting curve maximum to 1.0 and simulation continues.\n   ** Warning ** GetDXCoils: Coil:Cooling:DX:SingleSpeed=\"COIL COOLING DX SINGLE SPEED 3 5KBTU/HR 11.0EER\", invalid\n   **   ~~~   ** ...Part Load Fraction Correlation Curve Name = DXCOOL-NECB2011-REF-COOLPLFFPLR 21 has out of range value.\n   **   ~~~   ** ...Curve maximum must be <= 1.0, curve max at PLR = 0.99 is 1.015\n   **   ~~~   ** ...Setting curve maximum to 1.0 and simulation continues.\n   ** Warning ** GetDXCoils: Coil:Cooling:DX:SingleSpeed=\"COIL COOLING DX SINGLE SPEED 2 10KBTU/HR 10.4EER\", invalid\n   **   ~~~   ** ...Part Load Fraction Correlation Curve Name = DXCOOL-NECB2011-REF-COOLPLFFPLR 11 has out of range value.\n   **   ~~~   ** ...Curve maximum must be <= 1.0, curve max at PLR = 0.99 is 1.015\n   **   ~~~   ** ...Setting curve maximum to 1.0 and simulation continues.\n   ** Warning ** GetDXCoils: Coil:Cooling:DX:SingleSpeed=\"COIL COOLING DX SINGLE SPEED 5 10KBTU/HR 10.4EER\", invalid\n   **   ~~~   ** ...Part Load Fraction Correlation Curve Name = DXCOOL-NECB2011-REF-COOLPLFFPLR 23 has out of range value.\n   **   ~~~   ** ...Curve maximum must be <= 1.0, curve max at PLR = 0.99 is 1.015\n   **   ~~~   ** ...Setting curve maximum to 1.0 and simulation continues.\n   ** Warning ** GetDXCoils: Coil:Cooling:DX:SingleSpeed=\"COIL COOLING DX SINGLE SPEED 7 7KBTU/HR 11.0EER\", invalid\n   **   ~~~   ** ...Part Load Fraction Correlation Curve Name = DXCOOL-NECB2011-REF-COOLPLFFPLR 25 has out of range value.\n   **   ~~~   ** ...Curve maximum must be <= 1.0, curve max at PLR = 0.99 is 1.015\n   **   ~~~   ** ...Setting curve maximum to 1.0 and simulation continues.\n   ** Warning ** GetDXCoils: Coil:Cooling:DX:SingleSpeed=\"COIL COOLING DX SINGLE SPEED 9 7KBTU/HR 11.0EER\", invalid\n   **   ~~~   ** ...Part Load Fraction Correlation Curve Name = DXCOOL-NECB2011-REF-COOLPLFFPLR 27 has out of range value.\n   **   ~~~   ** ...Curve maximum must be <= 1.0, curve max at PLR = 0.99 is 1.015\n   **   ~~~   ** ...Setting curve maximum to 1.0 and simulation continues.\n   ** Warning ** GetDXCoils: Coil:Cooling:DX:SingleSpeed=\"COIL COOLING DX SINGLE SPEED 8 10KBTU/HR 10.4EER\", invalid\n   **   ~~~   ** ...Part Load Fraction Correlation Curve Name = DXCOOL-NECB2011-REF-COOLPLFFPLR 26 has out of range value.\n   **   ~~~   ** ...Curve maximum must be <= 1.0, curve max at PLR = 0.99 is 1.015\n   **   ~~~   ** ...Setting curve maximum to 1.0 and simulation continues.\n   ** Warning ** GetDXCoils: Coil:Cooling:DX:SingleSpeed=\"COIL COOLING DX SINGLE SPEED 10 11KBTU/HR 10.2EER\", invalid\n   **   ~~~   ** ...Part Load Fraction Correlation Curve Name = DXCOOL-NECB2011-REF-COOLPLFFPLR 1 has out of range value.\n   **   ~~~   ** ...Curve maximum must be <= 1.0, curve max at PLR = 0.99 is 1.015\n   **   ~~~   ** ...Setting curve maximum to 1.0 and simulation continues.\n   ** Warning ** GetDXCoils: Coil:Cooling:DX:SingleSpeed=\"COIL COOLING DX SINGLE SPEED 15 10KBTU/HR 10.3EER\", invalid\n   **   ~~~   ** ...Part Load Fraction Correlation Curve Name = DXCOOL-NECB2011-REF-COOLPLFFPLR 6 has out of range value.\n   **   ~~~   ** ...Curve maximum must be <= 1.0, curve max at PLR = 0.99 is 1.015\n   **   ~~~   ** ...Setting curve maximum to 1.0 and simulation continues.\n   ** Warning ** GetDXCoils: Coil:Cooling:DX:SingleSpeed=\"COIL COOLING DX SINGLE SPEED 12 9KBTU/HR 10.6EER\", invalid\n   **   ~~~   ** ...Part Load Fraction Correlation Curve Name = DXCOOL-NECB2011-REF-COOLPLFFPLR 3 has out of range value.\n   **   ~~~   ** ...Curve maximum must be <= 1.0, curve max at PLR = 0.99 is 1.015\n   **   ~~~   ** ...Setting curve maximum to 1.0 and simulation continues.\n   ** Warning ** GetDXCoils: Coil:Cooling:DX:SingleSpeed=\"COIL COOLING DX SINGLE SPEED 13 9KBTU/HR 10.6EER\", invalid\n   **   ~~~   ** ...Part Load Fraction Correlation Curve Name = DXCOOL-NECB2011-REF-COOLPLFFPLR 4 has out of range value.\n   **   ~~~   ** ...Curve maximum must be <= 1.0, curve max at PLR = 0.99 is 1.015\n   **   ~~~   ** ...Setting curve maximum to 1.0 and simulation continues.\n   ** Warning ** GetDXCoils: Coil:Cooling:DX:SingleSpeed=\"COIL COOLING DX SINGLE SPEED 14 11KBTU/HR 10.1EER\", invalid\n   **   ~~~   ** ...Part Load Fraction Correlation Curve Name = DXCOOL-NECB2011-REF-COOLPLFFPLR 5 has out of range value.\n   **   ~~~   ** ...Curve maximum must be <= 1.0, curve max at PLR = 0.99 is 1.015\n   **   ~~~   ** ...Setting curve maximum to 1.0 and simulation continues.\n   ** Warning ** GetDXCoils: Coil:Cooling:DX:SingleSpeed=\"COIL COOLING DX SINGLE SPEED 11 12KBTU/HR 10.0EER\", invalid\n   **   ~~~   ** ...Part Load Fraction Correlation Curve Name = DXCOOL-NECB2011-REF-COOLPLFFPLR 2 has out of range value.\n   **   ~~~   ** ...Curve maximum must be <= 1.0, curve max at PLR = 0.99 is 1.015\n   **   ~~~   ** ...Setting curve maximum to 1.0 and simulation continues.\n   ** Warning ** GetDXCoils: Coil:Cooling:DX:SingleSpeed=\"COIL COOLING DX SINGLE SPEED 16 10KBTU/HR 10.4EER\", invalid\n   **   ~~~   ** ...Part Load Fraction Correlation Curve Name = DXCOOL-NECB2011-REF-COOLPLFFPLR 7 has out of range value.\n   **   ~~~   ** ...Curve maximum must be <= 1.0, curve max at PLR = 0.99 is 1.015\n   **   ~~~   ** ...Setting curve maximum to 1.0 and simulation continues.\n   ** Warning ** GetDXCoils: Coil:Cooling:DX:SingleSpeed=\"COIL COOLING DX SINGLE SPEED 19 10KBTU/HR 10.4EER\", invalid\n   **   ~~~   ** ...Part Load Fraction Correlation Curve Name = DXCOOL-NECB2011-REF-COOLPLFFPLR 10 has out of range value.\n   **   ~~~   ** ...Curve maximum must be <= 1.0, curve max at PLR = 0.99 is 1.015\n   **   ~~~   ** ...Setting curve maximum to 1.0 and simulation continues.\n   ** Warning ** GetDXCoils: Coil:Cooling:DX:SingleSpeed=\"COIL COOLING DX SINGLE SPEED 18 12KBTU/HR 10.0EER\", invalid\n   **   ~~~   ** ...Part Load Fraction Correlation Curve Name = DXCOOL-NECB2011-REF-COOLPLFFPLR 9 has out of range value.\n   **   ~~~   ** ...Curve maximum must be <= 1.0, curve max at PLR = 0.99 is 1.015\n   **   ~~~   ** ...Setting curve maximum to 1.0 and simulation continues.\n   ** Warning ** GetDXCoils: Coil:Cooling:DX:SingleSpeed=\"COIL COOLING DX SINGLE SPEED 17 13KBTU/HR 9.7EER\", invalid\n   **   ~~~   ** ...Part Load Fraction Correlation Curve Name = DXCOOL-NECB2011-REF-COOLPLFFPLR 8 has out of range value.\n   **   ~~~   ** ...Curve maximum must be <= 1.0, curve max at PLR = 0.99 is 1.015\n   **   ~~~   ** ...Setting curve maximum to 1.0 and simulation continues.\n   ** Warning ** GetDXCoils: Coil:Cooling:DX:SingleSpeed=\"COIL COOLING DX SINGLE SPEED 1 88KBTU/HR 9.7EER\", invalid\n   **   ~~~   ** ...Part Load Fraction Correlation Curve Name = DXCOOL-NECB2011-REF-COOLPLFFPLR has out of range value.\n   **   ~~~   ** ...Curve maximum must be <= 1.0, curve max at PLR = 0.99 is 1.015\n   **   ~~~   ** ...Setting curve maximum to 1.0 and simulation continues.\n   ** Warning ** GetDXCoils: Coil:Cooling:DX:SingleSpeed=\"COIL COOLING DX SINGLE SPEED 28 19KBTU/HR 14.0SEER\", invalid\n   **   ~~~   ** ...Part Load Fraction Correlation Curve Name = DXCOOL-NECB2011-REF-COOLPLFFPLR 20 has out of range value.\n   **   ~~~   ** ...Curve maximum must be <= 1.0, curve max at PLR = 0.99 is 1.015\n   **   ~~~   ** ...Setting curve maximum to 1.0 and simulation continues.\n   ************* Beginning Plant Sizing Calculations\n   ** Warning ** The Standard Ratings is calculated for Coil:Cooling:DX:SingleSpeed = COIL COOLING DX SINGLE SPEED 24 7KBTU/HR 11.0EER but not at the AHRI test condition due to curve out of bound.\n   **   ~~~   **  Review the Standard Ratings calculations in the Engineering Reference for this coil type. Also, use Output:Diagnostics, DisplayExtraWarnings for further guidance.\n   ** Warning ** The Standard Ratings is calculated for Coil:Cooling:DX:SingleSpeed = COIL COOLING DX SINGLE SPEED 22 5KBTU/HR 11.0EER but not at the AHRI test condition due to curve out of bound.\n   **   ~~~   **  Review the Standard Ratings calculations in the Engineering Reference for this coil type. Also, use Output:Diagnostics, DisplayExtraWarnings for further guidance.\n   ** Warning ** The Standard Ratings is calculated for Coil:Cooling:DX:SingleSpeed = COIL COOLING DX SINGLE SPEED 21 5KBTU/HR 11.0EER but not at the AHRI test condition due to curve out of bound.\n   **   ~~~   **  Review the Standard Ratings calculations in the Engineering Reference for this coil type. Also, use Output:Diagnostics, DisplayExtraWarnings for further guidance.\n   ** Warning ** The Standard Ratings is calculated for Coil:Cooling:DX:SingleSpeed = COIL COOLING DX SINGLE SPEED 23 9KBTU/HR 10.6EER but not at the AHRI test condition due to curve out of bound.\n   **   ~~~   **  Review the Standard Ratings calculations in the Engineering Reference for this coil type. Also, use Output:Diagnostics, DisplayExtraWarnings for further guidance.\n   ** Warning ** The Standard Ratings is calculated for Coil:Cooling:DX:SingleSpeed = COIL COOLING DX SINGLE SPEED 20 9KBTU/HR 10.6EER but not at the AHRI test condition due to curve out of bound.\n   **   ~~~   **  Review the Standard Ratings calculations in the Engineering Reference for this coil type. Also, use Output:Diagnostics, DisplayExtraWarnings for further guidance.\n   ** Warning ** The Standard Ratings is calculated for Coil:Cooling:DX:SingleSpeed = COIL COOLING DX SINGLE SPEED 25 6KBTU/HR 11.0EER but not at the AHRI test condition due to curve out of bound.\n   **   ~~~   **  Review the Standard Ratings calculations in the Engineering Reference for this coil type. Also, use Output:Diagnostics, DisplayExtraWarnings for further guidance.\n   ** Warning ** The Standard Ratings is calculated for Coil:Cooling:DX:SingleSpeed = COIL COOLING DX SINGLE SPEED 26 7KBTU/HR 11.0EER but not at the AHRI test condition due to curve out of bound.\n   **   ~~~   **  Review the Standard Ratings calculations in the Engineering Reference for this coil type. Also, use Output:Diagnostics, DisplayExtraWarnings for further guidance.\n   ** Warning ** The Standard Ratings is calculated for Coil:Cooling:DX:SingleSpeed = COIL COOLING DX SINGLE SPEED 27 9KBTU/HR 10.5EER but not at the AHRI test condition due to curve out of bound.\n   **   ~~~   **  Review the Standard Ratings calculations in the Engineering Reference for this coil type. Also, use Output:Diagnostics, DisplayExtraWarnings for further guidance.\n   ** Warning ** The Standard Ratings is calculated for Coil:Cooling:DX:SingleSpeed = COIL COOLING DX SINGLE SPEED 6 7KBTU/HR 11.0EER but not at the AHRI test condition due to curve out of bound.\n   **   ~~~   **  Review the Standard Ratings calculations in the Engineering Reference for this coil type. Also, use Output:Diagnostics, DisplayExtraWarnings for further guidance.\n   ** Warning ** The Standard Ratings is calculated for Coil:Cooling:DX:SingleSpeed = COIL COOLING DX SINGLE SPEED 4 5KBTU/HR 11.0EER but not at the AHRI test condition due to curve out of bound.\n   **   ~~~   **  Review the Standard Ratings calculations in the Engineering Reference for this coil type. Also, use Output:Diagnostics, DisplayExtraWarnings for further guidance.\n   ** Warning ** The Standard Ratings is calculated for Coil:Cooling:DX:SingleSpeed = COIL COOLING DX SINGLE SPEED 3 5KBTU/HR 11.0EER but not at the AHRI test condition due to curve out of bound.\n   **   ~~~   **  Review the Standard Ratings calculations in the Engineering Reference for this coil type. Also, use Output:Diagnostics, DisplayExtraWarnings for further guidance.\n   ** Warning ** The Standard Ratings is calculated for Coil:Cooling:DX:SingleSpeed = COIL COOLING DX SINGLE SPEED 2 10KBTU/HR 10.4EER but not at the AHRI test condition due to curve out of bound.\n   **   ~~~   **  Review the Standard Ratings calculations in the Engineering Reference for this coil type. Also, use Output:Diagnostics, DisplayExtraWarnings for further guidance.\n   ** Warning ** The Standard Ratings is calculated for Coil:Cooling:DX:SingleSpeed = COIL COOLING DX SINGLE SPEED 5 10KBTU/HR 10.4EER but not at the AHRI test condition due to curve out of bound.\n   **   ~~~   **  Review the Standard Ratings calculations in the Engineering Reference for this coil type. Also, use Output:Diagnostics, DisplayExtraWarnings for further guidance.\n   ** Warning ** The Standard Ratings is calculated for Coil:Cooling:DX:SingleSpeed = COIL COOLING DX SINGLE SPEED 7 7KBTU/HR 11.0EER but not at the AHRI test condition due to curve out of bound.\n   **   ~~~   **  Review the Standard Ratings calculations in the Engineering Reference for this coil type. Also, use Output:Diagnostics, DisplayExtraWarnings for further guidance.\n   ** Warning ** The Standard Ratings is calculated for Coil:Cooling:DX:SingleSpeed = COIL COOLING DX SINGLE SPEED 9 7KBTU/HR 11.0EER but not at the AHRI test condition due to curve out of bound.\n   **   ~~~   **  Review the Standard Ratings calculations in the Engineering Reference for this coil type. Also, use Output:Diagnostics, DisplayExtraWarnings for further guidance.\n   ** Warning ** The Standard Ratings is calculated for Coil:Cooling:DX:SingleSpeed = COIL COOLING DX SINGLE SPEED 8 10KBTU/HR 10.4EER but not at the AHRI test condition due to curve out of bound.\n   **   ~~~   **  Review the Standard Ratings calculations in the Engineering Reference for this coil type. Also, use Output:Diagnostics, DisplayExtraWarnings for further guidance.\n   ** Warning ** The Standard Ratings is calculated for Coil:Cooling:DX:SingleSpeed = COIL COOLING DX SINGLE SPEED 10 11KBTU/HR 10.2EER but not at the AHRI test condition due to curve out of bound.\n   **   ~~~   **  Review the Standard Ratings calculations in the Engineering Reference for this coil type. Also, use Output:Diagnostics, DisplayExtraWarnings for further guidance.\n   ** Warning ** The Standard Ratings is calculated for Coil:Cooling:DX:SingleSpeed = COIL COOLING DX SINGLE SPEED 15 10KBTU/HR 10.3EER but not at the AHRI test condition due to curve out of bound.\n   **   ~~~   **  Review the Standard Ratings calculations in the Engineering Reference for this coil type. Also, use Output:Diagnostics, DisplayExtraWarnings for further guidance.\n   ** Warning ** The Standard Ratings is calculated for Coil:Cooling:DX:SingleSpeed = COIL COOLING DX SINGLE SPEED 12 9KBTU/HR 10.6EER but not at the AHRI test condition due to curve out of bound.\n   **   ~~~   **  Review the Standard Ratings calculations in the Engineering Reference for this coil type. Also, use Output:Diagnostics, DisplayExtraWarnings for further guidance.\n   ** Warning ** The Standard Ratings is calculated for Coil:Cooling:DX:SingleSpeed = COIL COOLING DX SINGLE SPEED 13 9KBTU/HR 10.6EER but not at the AHRI test condition due to curve out of bound.\n   **   ~~~   **  Review the Standard Ratings calculations in the Engineering Reference for this coil type. Also, use Output:Diagnostics, DisplayExtraWarnings for further guidance.\n   ** Warning ** The Standard Ratings is calculated for Coil:Cooling:DX:SingleSpeed = COIL COOLING DX SINGLE SPEED 14 11KBTU/HR 10.1EER but not at the AHRI test condition due to curve out of bound.\n   **   ~~~   **  Review the Standard Ratings calculations in the Engineering Reference for this coil type. Also, use Output:Diagnostics, DisplayExtraWarnings for further guidance.\n   ** Warning ** The Standard Ratings is calculated for Coil:Cooling:DX:SingleSpeed = COIL COOLING DX SINGLE SPEED 11 12KBTU/HR 10.0EER but not at the AHRI test condition due to curve out of bound.\n   **   ~~~   **  Review the Standard Ratings calculations in the Engineering Reference for this coil type. Also, use Output:Diagnostics, DisplayExtraWarnings for further guidance.\n   ** Warning ** The Standard Ratings is calculated for Coil:Cooling:DX:SingleSpeed = COIL COOLING DX SINGLE SPEED 16 10KBTU/HR 10.4EER but not at the AHRI test condition due to curve out of bound.\n   **   ~~~   **  Review the Standard Ratings calculations in the Engineering Reference for this coil type. Also, use Output:Diagnostics, DisplayExtraWarnings for further guidance.\n   ** Warning ** The Standard Ratings is calculated for Coil:Cooling:DX:SingleSpeed = COIL COOLING DX SINGLE SPEED 19 10KBTU/HR 10.4EER but not at the AHRI test condition due to curve out of bound.\n   **   ~~~   **  Review the Standard Ratings calculations in the Engineering Reference for this coil type. Also, use Output:Diagnostics, DisplayExtraWarnings for further guidance.\n   ** Warning ** The Standard Ratings is calculated for Coil:Cooling:DX:SingleSpeed = COIL COOLING DX SINGLE SPEED 18 12KBTU/HR 10.0EER but not at the AHRI test condition due to curve out of bound.\n   **   ~~~   **  Review the Standard Ratings calculations in the Engineering Reference for this coil type. Also, use Output:Diagnostics, DisplayExtraWarnings for further guidance.\n   ** Warning ** The Standard Ratings is calculated for Coil:Cooling:DX:SingleSpeed = COIL COOLING DX SINGLE SPEED 17 13KBTU/HR 9.7EER but not at the AHRI test condition due to curve out of bound.\n   **   ~~~   **  Review the Standard Ratings calculations in the Engineering Reference for this coil type. Also, use Output:Diagnostics, DisplayExtraWarnings for further guidance.\n   ** Warning ** The Standard Ratings is calculated for Coil:Cooling:DX:SingleSpeed = COIL COOLING DX SINGLE SPEED 1 88KBTU/HR 9.7EER but not at the AHRI test condition due to curve out of bound.\n   **   ~~~   **  Review the Standard Ratings calculations in the Engineering Reference for this coil type. Also, use Output:Diagnostics, DisplayExtraWarnings for further guidance.\n   ** Warning ** The Standard Ratings is calculated for Coil:Cooling:DX:SingleSpeed = COIL COOLING DX SINGLE SPEED 28 19KBTU/HR 14.0SEER but not at the AHRI test condition due to curve out of bound.\n   **   ~~~   **  Review the Standard Ratings calculations in the Engineering Reference for this coil type. Also, use Output:Diagnostics, DisplayExtraWarnings for further guidance.\n   ** Warning ** Output:Meter: invalid Name=\"GAS:FACILITY\" - not found.\n   ** Warning ** Output:Meter: invalid Name=\"DISTRICTCOOLING:FACILITY\" - not found.\n   ** Warning ** Output:Meter: invalid Name=\"DISTRICTHEATING:FACILITY\" - not found.\n   ** Warning ** Output:Meter:MeterFileOnly: invalid Name=\"GAS:FACILITY\" - not found.\n   ** Warning ** Output:Meter:MeterFileOnly: invalid Name=\"GAS:FACILITY\" - not found.\n   ** Warning ** Output:Meter:MeterFileOnly requested for \"Electricity:Facility\" (TimeStep), already on \"Output:Meter\". Will report to both eplusout.eso and eplusout.mtr\n   ************* Testing Individual Branch Integrity\n   ************* All Branches passed integrity testing\n   ************* Testing Individual Supply Air Path Integrity\n   ************* All Supply Air Paths passed integrity testing\n   ************* Testing Individual Return Air Path Integrity\n   ************* All Return Air Paths passed integrity testing\n   ************* No node connection errors were found.\n   ************* Beginning Simulation\n   ** Warning ** GetInputEconomicsTariff: UtilityCost:Tariff=\"GASMETRO\" missing meter\n   **   ~~~   ** Meter referenced is not present due to a lack of equipment that uses that energy source/meter:\"GAS:FACILITY\".\n   ** Warning ** CalcDoe2DXCoil: Coil:Cooling:DX:SingleSpeed \"COIL COOLING DX SINGLE SPEED 25 6KBTU/HR 11.0EER\" - Air-cooled condenser inlet dry-bulb temperature below 0 C. Outdoor dry-bulb temperature = -7.00\n   **   ~~~   **  ... Occurrence info = RUN PERIOD 1, 01/01 12:45 - 13:00\n   **   ~~~   ** ... Operation at low ambient temperatures may require special performance curves.\n   ** Warning ** CalcDoe2DXCoil: Coil:Cooling:DX:SingleSpeed \"COIL COOLING DX SINGLE SPEED 25 6KBTU/HR 11.0EER\" - Full load outlet air dry-bulb temperature < 2C. This indicates the possibility of coil frost/freeze. Outlet temperature = 0.69 C.\n   **   ~~~   **  ...Occurrence info = RUN PERIOD 1, 01/01 12:45 - 13:00\n   **   ~~~   ** ... Possible reasons for low outlet air dry-bulb temperatures are: This DX coil\n   **   ~~~   **    1) may have a low inlet air dry-bulb temperature. Inlet air temperature = 14.717 C.\n   **   ~~~   **    2) may have a low air flow rate per watt of cooling capacity. Check inputs.\n   **   ~~~   **    3) is used as part of a HX assisted cooling coil which uses a high sensible effectiveness. Check inputs.\n   ** Warning ** CalcDoe2DXCoil: Coil:Cooling:DX:SingleSpeed \"COIL COOLING DX SINGLE SPEED 26 7KBTU/HR 11.0EER\" - Air-cooled condenser inlet dry-bulb temperature below 0 C. Outdoor dry-bulb temperature = -7.00\n   **   ~~~   **  ... Occurrence info = RUN PERIOD 1, 01/01 12:45 - 13:00\n   **   ~~~   ** ... Operation at low ambient temperatures may require special performance curves.\n   ** Warning ** CalcDoe2DXCoil: Coil:Cooling:DX:SingleSpeed \"COIL COOLING DX SINGLE SPEED 26 7KBTU/HR 11.0EER\" - Full load outlet air dry-bulb temperature < 2C. This indicates the possibility of coil frost/freeze. Outlet temperature = 1.25 C.\n   **   ~~~   **  ...Occurrence info = RUN PERIOD 1, 01/01 12:45 - 13:00\n   **   ~~~   ** ... Possible reasons for low outlet air dry-bulb temperatures are: This DX coil\n   **   ~~~   **    1) may have a low inlet air dry-bulb temperature. Inlet air temperature = 15.065 C.\n   **   ~~~   **    2) may have a low air flow rate per watt of cooling capacity. Check inputs.\n   **   ~~~   **    3) is used as part of a HX assisted cooling coil which uses a high sensible effectiveness. Check inputs.\n   ** Warning ** CalcDoe2DXCoil: Coil:Cooling:DX:SingleSpeed \"COIL COOLING DX SINGLE SPEED 7 7KBTU/HR 11.0EER\" - Air-cooled condenser inlet dry-bulb temperature below 0 C. Outdoor dry-bulb temperature = -7.05\n   **   ~~~   **  ... Occurrence info = RUN PERIOD 1, 01/01 13:08 - 13:15\n   **   ~~~   ** ... Operation at low ambient temperatures may require special performance curves.\n   ** Warning ** CalcDoe2DXCoil: Coil:Cooling:DX:SingleSpeed \"COIL COOLING DX SINGLE SPEED 9 7KBTU/HR 11.0EER\" - Air-cooled condenser inlet dry-bulb temperature below 0 C. Outdoor dry-bulb temperature = -7.05\n   **   ~~~   **  ... Occurrence info = RUN PERIOD 1, 01/01 13:08 - 13:15\n   **   ~~~   ** ... Operation at low ambient temperatures may require special performance curves.\n   ** Warning ** CalcDoe2DXCoil: Coil:Cooling:DX:SingleSpeed \"COIL COOLING DX SINGLE SPEED 27 9KBTU/HR 10.5EER\" - Air-cooled condenser inlet dry-bulb temperature below 0 C. Outdoor dry-bulb temperature = -7.10\n   **   ~~~   **  ... Occurrence info = RUN PERIOD 1, 01/01 13:23 - 13:30\n   **   ~~~   ** ... Operation at low ambient temperatures may require special performance curves.\n   ** Warning ** CalcDoe2DXCoil: Coil:Cooling:DX:SingleSpeed \"COIL COOLING DX SINGLE SPEED 8 10KBTU/HR 10.4EER\" - Air-cooled condenser inlet dry-bulb temperature below 0 C. Outdoor dry-bulb temperature = -7.20\n   **   ~~~   **  ... Occurrence info = RUN PERIOD 1, 01/01 13:45 - 14:00\n   **   ~~~   ** ... Operation at low ambient temperatures may require special performance curves.\n   ** Warning ** CalcDoe2DXCoil: Coil:Cooling:DX:SingleSpeed \"COIL COOLING DX SINGLE SPEED 10 11KBTU/HR 10.2EER\" - Air-cooled condenser inlet dry-bulb temperature below 0 C. Outdoor dry-bulb temperature = -7.20\n   **   ~~~   **  ... Occurrence info = RUN PERIOD 1, 01/01 13:45 - 14:00\n   **   ~~~   ** ... Operation at low ambient temperatures may require special performance curves.\n   ** Warning ** CalcDoe2DXCoil: Coil:Cooling:DX:SingleSpeed \"COIL COOLING DX SINGLE SPEED 7 7KBTU/HR 11.0EER\" - Full load outlet air dry-bulb temperature < 2C. This indicates the possibility of coil frost/freeze. Outlet temperature = 1.98 C.\n   **   ~~~   **  ...Occurrence info = RUN PERIOD 1, 01/01 15:00 - 15:15\n   **   ~~~   ** ... Possible reasons for low outlet air dry-bulb temperatures are: This DX coil\n   **   ~~~   **    1) may have a low inlet air dry-bulb temperature. Inlet air temperature = 15.674 C.\n   **   ~~~   **    2) may have a low air flow rate per watt of cooling capacity. Check inputs.\n   **   ~~~   **    3) is used as part of a HX assisted cooling coil which uses a high sensible effectiveness. Check inputs.\n   ** Warning ** CalcDoe2DXCoil: Coil:Cooling:DX:SingleSpeed \"COIL COOLING DX SINGLE SPEED 9 7KBTU/HR 11.0EER\" - Full load outlet air dry-bulb temperature < 2C. This indicates the possibility of coil frost/freeze. Outlet temperature = 1.92 C.\n   **   ~~~   **  ...Occurrence info = RUN PERIOD 1, 01/01 16:00 - 16:08\n   **   ~~~   ** ... Possible reasons for low outlet air dry-bulb temperatures are: This DX coil\n   **   ~~~   **    1) may have a low inlet air dry-bulb temperature. Inlet air temperature = 15.519 C.\n   **   ~~~   **    2) may have a low air flow rate per watt of cooling capacity. Check inputs.\n   **   ~~~   **    3) is used as part of a HX assisted cooling coil which uses a high sensible effectiveness. Check inputs.\n   ** Warning ** CalcDoe2DXCoil: Coil:Cooling:DX:SingleSpeed \"COIL COOLING DX SINGLE SPEED 16 10KBTU/HR 10.4EER\" - Air-cooled condenser inlet dry-bulb temperature below 0 C. Outdoor dry-bulb temperature = -18.38\n   **   ~~~   **  ... Occurrence info = RUN PERIOD 1, 01/04 11:08 - 11:15\n   **   ~~~   ** ... Operation at low ambient temperatures may require special performance curves.\n   ** Warning ** CalcDoe2DXCoil: Coil:Cooling:DX:SingleSpeed \"COIL COOLING DX SINGLE SPEED 19 10KBTU/HR 10.4EER\" - Air-cooled condenser inlet dry-bulb temperature below 0 C. Outdoor dry-bulb temperature = -18.38\n   **   ~~~   **  ... Occurrence info = RUN PERIOD 1, 01/04 11:08 - 11:15\n   **   ~~~   ** ... Operation at low ambient temperatures may require special performance curves.\n   ** Warning ** CalcDoe2DXCoil: Coil:Cooling:DX:SingleSpeed \"COIL COOLING DX SINGLE SPEED 18 12KBTU/HR 10.0EER\" - Air-cooled condenser inlet dry-bulb temperature below 0 C. Outdoor dry-bulb temperature = -18.38\n   **   ~~~   **  ... Occurrence info = RUN PERIOD 1, 01/04 11:08 - 11:15\n   **   ~~~   ** ... Operation at low ambient temperatures may require special performance curves.\n   ** Warning ** CalcDoe2DXCoil: Coil:Cooling:DX:SingleSpeed \"COIL COOLING DX SINGLE SPEED 17 13KBTU/HR 9.7EER\" - Air-cooled condenser inlet dry-bulb temperature below 0 C. Outdoor dry-bulb temperature = -17.70\n   **   ~~~   **  ... Occurrence info = RUN PERIOD 1, 01/04 11:45 - 12:00\n   **   ~~~   ** ... Operation at low ambient temperatures may require special performance curves.\n   ** Warning ** CalcDoe2DXCoil: Coil:Cooling:DX:SingleSpeed \"COIL COOLING DX SINGLE SPEED 27 9KBTU/HR 10.5EER\" - Full load outlet air dry-bulb temperature < 2C. This indicates the possibility of coil frost/freeze. Outlet temperature = 1.80 C.\n   **   ~~~   **  ...Occurrence info = RUN PERIOD 1, 01/14 10:15 - 10:22\n   **   ~~~   ** ... Possible reasons for low outlet air dry-bulb temperatures are: This DX coil\n   **   ~~~   **    1) may have a low inlet air dry-bulb temperature. Inlet air temperature = 14.772 C.\n   **   ~~~   **    2) may have a low air flow rate per watt of cooling capacity. Check inputs.\n   **   ~~~   **    3) is used as part of a HX assisted cooling coil which uses a high sensible effectiveness. Check inputs.\n   ** Warning ** CalcDoe2DXCoil: Coil:Cooling:DX:SingleSpeed \"COIL COOLING DX SINGLE SPEED 28 19KBTU/HR 14.0SEER\" - Full load outlet air dry-bulb temperature < 2C. This indicates the possibility of coil frost/freeze. Outlet temperature = -3.42 C.\n   **   ~~~   **  ...Occurrence info = RUN PERIOD 1, 01/18 08:02 - 08:04\n   **   ~~~   ** ... Possible reasons for low outlet air dry-bulb temperatures are: This DX coil\n   **   ~~~   **    1) may have a low inlet air dry-bulb temperature. Inlet air temperature = 12.079 C.\n   **   ~~~   **    2) may have a low air flow rate per watt of cooling capacity. Check inputs.\n   **   ~~~   **    3) is used as part of a HX assisted cooling coil which uses a high sensible effectiveness. Check inputs.\n   ** Warning ** CalcDoe2DXCoil: Coil:Cooling:DX:SingleSpeed \"COIL COOLING DX SINGLE SPEED 6 7KBTU/HR 11.0EER\" - Air-cooled condenser inlet dry-bulb temperature below 0 C. Outdoor dry-bulb temperature = -12.05\n   **   ~~~   **  ... Occurrence info = RUN PERIOD 1, 01/23 15:15 - 15:30\n   **   ~~~   ** ... Operation at low ambient temperatures may require special performance curves.\n   ** Warning ** CalcDoe2DXCoil: Coil:Cooling:DX:SingleSpeed \"COIL COOLING DX SINGLE SPEED 15 10KBTU/HR 10.3EER\" - Air-cooled condenser inlet dry-bulb temperature below 0 C. Outdoor dry-bulb temperature = -11.55\n   **   ~~~   **  ... Occurrence info = RUN PERIOD 1, 02/24 13:00 - 13:15\n   **   ~~~   ** ... Operation at low ambient temperatures may require special performance curves.\n   ** Warning ** CalcDoe2DXCoil: Coil:Cooling:DX:SingleSpeed \"COIL COOLING DX SINGLE SPEED 24 7KBTU/HR 11.0EER\" - Air-cooled condenser inlet dry-bulb temperature below 0 C. Outdoor dry-bulb temperature = -11.25\n   **   ~~~   **  ... Occurrence info = RUN PERIOD 1, 02/24 13:30 - 13:45\n   **   ~~~   ** ... Operation at low ambient temperatures may require special performance curves.\n   ** Warning ** CalcDoe2DXCoil: Coil:Cooling:DX:SingleSpeed \"COIL COOLING DX SINGLE SPEED 20 9KBTU/HR 10.6EER\" - Air-cooled condenser inlet dry-bulb temperature below 0 C. Outdoor dry-bulb temperature = -10.60\n   **   ~~~   **  ... Occurrence info = RUN PERIOD 1, 02/24 15:30 - 15:38\n   **   ~~~   ** ... Operation at low ambient temperatures may require special performance curves.\n   ** Warning ** CalcDoe2DXCoil: Coil:Cooling:DX:SingleSpeed \"COIL COOLING DX SINGLE SPEED 11 12KBTU/HR 10.0EER\" - Air-cooled condenser inlet dry-bulb temperature below 0 C. Outdoor dry-bulb temperature = -10.60\n   **   ~~~   **  ... Occurrence info = RUN PERIOD 1, 02/24 15:38 - 15:45\n   **   ~~~   ** ... Operation at low ambient temperatures may require special performance curves.\n   ** Warning ** CalcDoe2DXCoil: Coil:Cooling:DX:SingleSpeed \"COIL COOLING DX SINGLE SPEED 5 10KBTU/HR 10.4EER\" - Air-cooled condenser inlet dry-bulb temperature below 0 C. Outdoor dry-bulb temperature = -10.60\n   **   ~~~   **  ... Occurrence info = RUN PERIOD 1, 02/24 15:45 - 16:00\n   **   ~~~   ** ... Operation at low ambient temperatures may require special performance curves.\n   ** Warning ** CalcDoe2DXCoil: Coil:Cooling:DX:SingleSpeed \"COIL COOLING DX SINGLE SPEED 4 5KBTU/HR 11.0EER\" - Air-cooled condenser inlet dry-bulb temperature below 0 C. Outdoor dry-bulb temperature = -1.00\n   **   ~~~   **  ... Occurrence info = RUN PERIOD 1, 03/10 19:15 - 19:30\n   **   ~~~   ** ... Operation at low ambient temperatures may require special performance curves.\n   ** Warning ** CalcDoe2DXCoil: Coil:Cooling:DX:SingleSpeed \"COIL COOLING DX SINGLE SPEED 3 5KBTU/HR 11.0EER\" - Air-cooled condenser inlet dry-bulb temperature below 0 C. Outdoor dry-bulb temperature = -1.70\n   **   ~~~   **  ... Occurrence info = RUN PERIOD 1, 03/10 19:30 - 19:45\n   **   ~~~   ** ... Operation at low ambient temperatures may require special performance curves.\n   ** Warning ** CalcDoe2DXCoil: Coil:Cooling:DX:SingleSpeed \"COIL COOLING DX SINGLE SPEED 4 5KBTU/HR 11.0EER\" - Full load outlet air dry-bulb temperature < 2C. This indicates the possibility of coil frost/freeze. Outlet temperature = 1.90 C.\n   **   ~~~   **  ...Occurrence info = RUN PERIOD 1, 03/10 21:45 - 22:00\n   **   ~~~   ** ... Possible reasons for low outlet air dry-bulb temperatures are: This DX coil\n   **   ~~~   **    1) may have a low inlet air dry-bulb temperature. Inlet air temperature = 14.484 C.\n   **   ~~~   **    2) may have a low air flow rate per watt of cooling capacity. Check inputs.\n   **   ~~~   **    3) is used as part of a HX assisted cooling coil which uses a high sensible effectiveness. Check inputs.\n   ** Warning ** CalcDoe2DXCoil: Coil:Cooling:DX:SingleSpeed \"COIL COOLING DX SINGLE SPEED 3 5KBTU/HR 11.0EER\" - Full load outlet air dry-bulb temperature < 2C. This indicates the possibility of coil frost/freeze. Outlet temperature = 1.79 C.\n   **   ~~~   **  ...Occurrence info = RUN PERIOD 1, 03/10 21:45 - 22:00\n   **   ~~~   ** ... Possible reasons for low outlet air dry-bulb temperatures are: This DX coil\n   **   ~~~   **    1) may have a low inlet air dry-bulb temperature. Inlet air temperature = 14.449 C.\n   **   ~~~   **    2) may have a low air flow rate per watt of cooling capacity. Check inputs.\n   **   ~~~   **    3) is used as part of a HX assisted cooling coil which uses a high sensible effectiveness. Check inputs.\n   ** Warning ** CalcDoe2DXCoil: Coil:Cooling:DX:SingleSpeed \"COIL COOLING DX SINGLE SPEED 23 9KBTU/HR 10.6EER\" - Air-cooled condenser inlet dry-bulb temperature below 0 C. Outdoor dry-bulb temperature = -8.13\n   **   ~~~   **  ... Occurrence info = RUN PERIOD 1, 03/22 08:40 - 08:45\n   **   ~~~   ** ... Operation at low ambient temperatures may require special performance curves.\n   ** Warning ** CalcDoe2DXCoil: Coil:Cooling:DX:SingleSpeed \"COIL COOLING DX SINGLE SPEED 2 10KBTU/HR 10.4EER\" - Air-cooled condenser inlet dry-bulb temperature below 0 C. Outdoor dry-bulb temperature = -6.75\n   **   ~~~   **  ... Occurrence info = RUN PERIOD 1, 03/22 09:00 - 09:08\n   **   ~~~   ** ... Operation at low ambient temperatures may require special performance curves.\n   ** Warning ** CalcDoe2DXCoil: Coil:Cooling:DX:SingleSpeed \"COIL COOLING DX SINGLE SPEED 14 11KBTU/HR 10.1EER\" - Air-cooled condenser inlet dry-bulb temperature below 0 C. Outdoor dry-bulb temperature = -2.60\n   **   ~~~   **  ... Occurrence info = RUN PERIOD 1, 03/24 10:15 - 10:30\n   **   ~~~   ** ... Operation at low ambient temperatures may require special performance curves.\n   ** Warning ** CalcDoe2DXCoil: Coil:Cooling:DX:SingleSpeed \"COIL COOLING DX SINGLE SPEED 21 5KBTU/HR 11.0EER\" - Full load outlet air dry-bulb temperature < 2C. This indicates the possibility of coil frost/freeze. Outlet temperature = 1.04 C.\n   **   ~~~   **  ...Occurrence info = RUN PERIOD 1, 03/31 14:00 - 14:15\n   **   ~~~   ** ... Possible reasons for low outlet air dry-bulb temperatures are: This DX coil\n   **   ~~~   **    1) may have a low inlet air dry-bulb temperature. Inlet air temperature = 15.565 C.\n   **   ~~~   **    2) may have a low air flow rate per watt of cooling capacity. Check inputs.\n   **   ~~~   **    3) is used as part of a HX assisted cooling coil which uses a high sensible effectiveness. Check inputs.\n   ** Warning ** CalcDoe2DXCoil: Coil:Cooling:DX:SingleSpeed \"COIL COOLING DX SINGLE SPEED 22 5KBTU/HR 11.0EER\" - Full load outlet air dry-bulb temperature < 2C. This indicates the possibility of coil frost/freeze. Outlet temperature = 1.67 C.\n   **   ~~~   **  ...Occurrence info = RUN PERIOD 1, 04/12 22:00 - 22:15\n   **   ~~~   ** ... Possible reasons for low outlet air dry-bulb temperatures are: This DX coil\n   **   ~~~   **    1) may have a low inlet air dry-bulb temperature. Inlet air temperature = 14.898 C.\n   **   ~~~   **    2) may have a low air flow rate per watt of cooling capacity. Check inputs.\n   **   ~~~   **    3) is used as part of a HX assisted cooling coil which uses a high sensible effectiveness. Check inputs.\n   ** Warning ** CalcDoe2DXCoil: Coil:Cooling:DX:SingleSpeed \"COIL COOLING DX SINGLE SPEED 1 88KBTU/HR 9.7EER\" - Full load outlet air dry-bulb temperature < 2C. This indicates the possibility of coil frost/freeze. Outlet temperature = 0.37 C.\n   **   ~~~   **  ...Occurrence info = RUN PERIOD 1, 04/19 12:00 - 12:15\n   **   ~~~   ** ... Possible reasons for low outlet air dry-bulb temperatures are: This DX coil\n   **   ~~~   **    1) may have a low inlet air dry-bulb temperature. Inlet air temperature = 18.825 C.\n   **   ~~~   **    2) may have a low air flow rate per watt of cooling capacity. Check inputs.\n   **   ~~~   **    3) is used as part of a HX assisted cooling coil which uses a high sensible effectiveness. Check inputs.\n   ************* Simulation Error Summary *************\n   ************* There are 9 unused schedules in input.\n   ************* There are 9 unused week schedules in input.\n   ************* There are 17 unused day schedules in input.\n   ************* Use Output:Diagnostics,DisplayUnusedSchedules; to see them.\n   *************\n   ************* ===== Recurring Error Summary =====\n   ************* The following recurring error messages occurred.\n   *************\n   *************  ** Warning ** CalcDoe2DXCoil: Coil:Cooling:DX:SingleSpeed=\"COIL COOLING DX SINGLE SPEED 25 6KBTU/HR 11.0EER\" - Low condenser dry-bulb temperature error continues...\n   *************  **   ~~~   **   This error occurred 1795 total times;\n   *************  **   ~~~   **   during Warmup 0 times;\n   *************  **   ~~~   **   during Sizing 0 times.\n   *************  **   ~~~   **   Max=-5.551115E-017 [C]  Min=-26. [C]\n   *************\n   *************  ** Warning ** CalcDoe2DXCoil: Coil:Cooling:DX:SingleSpeed=\"COIL COOLING DX SINGLE SPEED 25 6KBTU/HR 11.0EER\" - Full load outlet temperature indicates a possibility of frost/freeze error continues. Outlet air temperature statistics follow:\n   *************  **   ~~~   **   This error occurred 1424 total times;\n   *************  **   ~~~   **   during Warmup 0 times;\n   *************  **   ~~~   **   during Sizing 0 times.\n   *************  **   ~~~   **   Max=1.999616  Min=-4.873357\n   *************\n   *************  ** Warning ** CalcDoe2DXCoil: Coil:Cooling:DX:SingleSpeed=\"COIL COOLING DX SINGLE SPEED 26 7KBTU/HR 11.0EER\" - Low condenser dry-bulb temperature error continues...\n   *************  **   ~~~   **   This error occurred 1747 total times;\n   *************  **   ~~~   **   during Warmup 0 times;\n   *************  **   ~~~   **   during Sizing 0 times.\n   *************  **   ~~~   **   Max=-5.551115E-017 [C]  Min=-26. [C]\n   *************\n   *************  ** Warning ** CalcDoe2DXCoil: Coil:Cooling:DX:SingleSpeed=\"COIL COOLING DX SINGLE SPEED 26 7KBTU/HR 11.0EER\" - Full load outlet temperature indicates a possibility of frost/freeze error continues. Outlet air temperature statistics follow:\n   *************  **   ~~~   **   This error occurred 1273 total times;\n   *************  **   ~~~   **   during Warmup 0 times;\n   *************  **   ~~~   **   during Sizing 0 times.\n   *************  **   ~~~   **   Max=1.998202  Min=-4.022774\n   *************\n   *************  ** Warning ** CalcDoe2DXCoil: Coil:Cooling:DX:SingleSpeed=\"COIL COOLING DX SINGLE SPEED 7 7KBTU/HR 11.0EER\" - Low condenser dry-bulb temperature error continues...\n   *************  **   ~~~   **   This error occurred 3104 total times;\n   *************  **   ~~~   **   during Warmup 0 times;\n   *************  **   ~~~   **   during Sizing 0 times.\n   *************  **   ~~~   **   Max=-1.387779E-017 [C]  Min=-27.3 [C]\n   *************\n   *************  ** Warning ** CalcDoe2DXCoil: Coil:Cooling:DX:SingleSpeed=\"COIL COOLING DX SINGLE SPEED 9 7KBTU/HR 11.0EER\" - Low condenser dry-bulb temperature error continues...\n   *************  **   ~~~   **   This error occurred 3089 total times;\n   *************  **   ~~~   **   during Warmup 0 times;\n   *************  **   ~~~   **   during Sizing 0 times.\n   *************  **   ~~~   **   Max=-1.387779E-017 [C]  Min=-27.075 [C]\n   *************\n   *************  ** Warning ** CalcDoe2DXCoil: Coil:Cooling:DX:SingleSpeed=\"COIL COOLING DX SINGLE SPEED 27 9KBTU/HR 10.5EER\" - Low condenser dry-bulb temperature error continues...\n   *************  **   ~~~   **   This error occurred 1537 total times;\n   *************  **   ~~~   **   during Warmup 0 times;\n   *************  **   ~~~   **   during Sizing 0 times.\n   *************  **   ~~~   **   Max=-5.551115E-017 [C]  Min=-25.25 [C]\n   *************\n   *************  ** Warning ** CalcDoe2DXCoil: Coil:Cooling:DX:SingleSpeed=\"COIL COOLING DX SINGLE SPEED 8 10KBTU/HR 10.4EER\" - Low condenser dry-bulb temperature error continues...\n   *************  **   ~~~   **   This error occurred 2197 total times;\n   *************  **   ~~~   **   during Warmup 0 times;\n   *************  **   ~~~   **   during Sizing 0 times.\n   *************  **   ~~~   **   Max=-5.551115E-017 [C]  Min=-25.25 [C]\n   *************\n   *************  ** Warning ** CalcDoe2DXCoil: Coil:Cooling:DX:SingleSpeed=\"COIL COOLING DX SINGLE SPEED 10 11KBTU/HR 10.2EER\" - Low condenser dry-bulb temperature error continues...\n   *************  **   ~~~   **   This error occurred 1953 total times;\n   *************  **   ~~~   **   during Warmup 0 times;\n   *************  **   ~~~   **   during Sizing 0 times.\n   *************  **   ~~~   **   Max=-5.551115E-017 [C]  Min=-24.75 [C]\n   *************\n   *************  ** Warning ** CalcDoe2DXCoil: Coil:Cooling:DX:SingleSpeed=\"COIL COOLING DX SINGLE SPEED 7 7KBTU/HR 11.0EER\" - Full load outlet temperature indicates a possibility of frost/freeze error continues. Outlet air temperature statistics follow:\n   *************  **   ~~~   **   This error occurred 1487 total times;\n   *************  **   ~~~   **   during Warmup 0 times;\n   *************  **   ~~~   **   during Sizing 0 times.\n   *************  **   ~~~   **   Max=1.998505  Min=-2.460279\n   *************\n   *************  ** Warning ** CalcDoe2DXCoil: Coil:Cooling:DX:SingleSpeed=\"COIL COOLING DX SINGLE SPEED 9 7KBTU/HR 11.0EER\" - Full load outlet temperature indicates a possibility of frost/freeze error continues. Outlet air temperature statistics follow:\n   *************  **   ~~~   **   This error occurred 1304 total times;\n   *************  **   ~~~   **   during Warmup 0 times;\n   *************  **   ~~~   **   during Sizing 0 times.\n   *************  **   ~~~   **   Max=1.999387  Min=-2.390599\n   *************\n   *************  ** Warning ** CalcDoe2DXCoil: Coil:Cooling:DX:SingleSpeed=\"COIL COOLING DX SINGLE SPEED 16 10KBTU/HR 10.4EER\" - Low condenser dry-bulb temperature error continues...\n   *************  **   ~~~   **   This error occurred 910 total times;\n   *************  **   ~~~   **   during Warmup 0 times;\n   *************  **   ~~~   **   during Sizing 0 times.\n   *************  **   ~~~   **   Max=-5.551115E-017 [C]  Min=-24.5 [C]\n   *************\n   *************  ** Warning ** CalcDoe2DXCoil: Coil:Cooling:DX:SingleSpeed=\"COIL COOLING DX SINGLE SPEED 19 10KBTU/HR 10.4EER\" - Low condenser dry-bulb temperature error continues...\n   *************  **   ~~~   **   This error occurred 938 total times;\n   *************  **   ~~~   **   during Warmup 0 times;\n   *************  **   ~~~   **   during Sizing 0 times.\n   *************  **   ~~~   **   Max=-5.551115E-017 [C]  Min=-24.5 [C]\n   *************\n   *************  ** Warning ** CalcDoe2DXCoil: Coil:Cooling:DX:SingleSpeed=\"COIL COOLING DX SINGLE SPEED 18 12KBTU/HR 10.0EER\" - Low condenser dry-bulb temperature error continues...\n   *************  **   ~~~   **   This error occurred 1063 total times;\n   *************  **   ~~~   **   during Warmup 0 times;\n   *************  **   ~~~   **   during Sizing 0 times.\n   *************  **   ~~~   **   Max=-5.551115E-017 [C]  Min=-24.7 [C]\n   *************\n   *************  ** Warning ** CalcDoe2DXCoil: Coil:Cooling:DX:SingleSpeed=\"COIL COOLING DX SINGLE SPEED 17 13KBTU/HR 9.7EER\" - Low condenser dry-bulb temperature error continues...\n   *************  **   ~~~   **   This error occurred 847 total times;\n   *************  **   ~~~   **   during Warmup 0 times;\n   *************  **   ~~~   **   during Sizing 0 times.\n   *************  **   ~~~   **   Max=-5.551115E-017 [C]  Min=-24.3 [C]\n   *************\n   *************  ** Warning ** CalcDoe2DXCoil: Coil:Cooling:DX:SingleSpeed=\"COIL COOLING DX SINGLE SPEED 27 9KBTU/HR 10.5EER\" - Full load outlet temperature indicates a possibility of frost/freeze error continues. Outlet air temperature statistics follow:\n   *************  **   ~~~   **   This error occurred 3 total times;\n   *************  **   ~~~   **   during Warmup 0 times;\n   *************  **   ~~~   **   during Sizing 0 times.\n   *************  **   ~~~   **   Max=1.953222  Min=1.796147\n   *************\n   *************  ** Warning ** CalcDoe2DXCoil: Coil:Cooling:DX:SingleSpeed=\"COIL COOLING DX SINGLE SPEED 28 19KBTU/HR 14.0SEER\" - Full load outlet temperature indicates a possibility of frost/freeze error continues. Outlet air temperature statistics follow:\n   *************  **   ~~~   **   This error occurred 943 total times;\n   *************  **   ~~~   **   during Warmup 0 times;\n   *************  **   ~~~   **   during Sizing 0 times.\n   *************  **   ~~~   **   Max=1.999485  Min=-6.212361\n   *************\n   *************  ** Warning ** CalcDoe2DXCoil: Coil:Cooling:DX:SingleSpeed=\"COIL COOLING DX SINGLE SPEED 6 7KBTU/HR 11.0EER\" - Low condenser dry-bulb temperature error continues...\n   *************  **   ~~~   **   This error occurred 979 total times;\n   *************  **   ~~~   **   during Warmup 0 times;\n   *************  **   ~~~   **   during Sizing 0 times.\n   *************  **   ~~~   **   Max=-2.500000E-002 [C]  Min=-18.1 [C]\n   *************\n   *************  ** Warning ** CalcDoe2DXCoil: Coil:Cooling:DX:SingleSpeed=\"COIL COOLING DX SINGLE SPEED 15 10KBTU/HR 10.3EER\" - Low condenser dry-bulb temperature error continues...\n   *************  **   ~~~   **   This error occurred 46 total times;\n   *************  **   ~~~   **   during Warmup 0 times;\n   *************  **   ~~~   **   during Sizing 0 times.\n   *************  **   ~~~   **   Max=-0.175 [C]  Min=-11.55 [C]\n   *************\n   *************  ** Warning ** CalcDoe2DXCoil: Coil:Cooling:DX:SingleSpeed=\"COIL COOLING DX SINGLE SPEED 24 7KBTU/HR 11.0EER\" - Low condenser dry-bulb temperature error continues...\n   *************  **   ~~~   **   This error occurred 100 total times;\n   *************  **   ~~~   **   during Warmup 0 times;\n   *************  **   ~~~   **   during Sizing 0 times.\n   *************  **   ~~~   **   Max=-0.1 [C]  Min=-11.25 [C]\n   *************\n   *************  ** Warning ** CalcDoe2DXCoil: Coil:Cooling:DX:SingleSpeed=\"COIL COOLING DX SINGLE SPEED 20 9KBTU/HR 10.6EER\" - Low condenser dry-bulb temperature error continues...\n   *************  **   ~~~   **   This error occurred 102 total times;\n   *************  **   ~~~   **   during Warmup 0 times;\n   *************  **   ~~~   **   during Sizing 0 times.\n   *************  **   ~~~   **   Max=-0.1 [C]  Min=-17.2 [C]\n   *************\n   *************  ** Warning ** CalcDoe2DXCoil: Coil:Cooling:DX:SingleSpeed=\"COIL COOLING DX SINGLE SPEED 11 12KBTU/HR 10.0EER\" - Low condenser dry-bulb temperature error continues...\n   *************  **   ~~~   **   This error occurred 40 total times;\n   *************  **   ~~~   **   during Warmup 0 times;\n   *************  **   ~~~   **   during Sizing 0 times.\n   *************  **   ~~~   **   Max=-0.125 [C]  Min=-10.6 [C]\n   *************\n   *************  ** Warning ** CalcDoe2DXCoil: Coil:Cooling:DX:SingleSpeed=\"COIL COOLING DX SINGLE SPEED 5 10KBTU/HR 10.4EER\" - Low condenser dry-bulb temperature error continues...\n   *************  **   ~~~   **   This error occurred 306 total times;\n   *************  **   ~~~   **   during Warmup 0 times;\n   *************  **   ~~~   **   during Sizing 0 times.\n   *************  **   ~~~   **   Max=-5.000000E-002 [C]  Min=-17.2 [C]\n   *************\n   *************  ** Warning ** CalcDoe2DXCoil: Coil:Cooling:DX:SingleSpeed=\"COIL COOLING DX SINGLE SPEED 4 5KBTU/HR 11.0EER\" - Low condenser dry-bulb temperature error continues...\n   *************  **   ~~~   **   This error occurred 311 total times;\n   *************  **   ~~~   **   during Warmup 0 times;\n   *************  **   ~~~   **   during Sizing 0 times.\n   *************  **   ~~~   **   Max=-2.500000E-002 [C]  Min=-7.35 [C]\n   *************\n   *************  ** Warning ** CalcDoe2DXCoil: Coil:Cooling:DX:SingleSpeed=\"COIL COOLING DX SINGLE SPEED 3 5KBTU/HR 11.0EER\" - Low condenser dry-bulb temperature error continues...\n   *************  **   ~~~   **   This error occurred 275 total times;\n   *************  **   ~~~   **   during Warmup 0 times;\n   *************  **   ~~~   **   during Sizing 0 times.\n   *************  **   ~~~   **   Max=-2.500000E-002 [C]  Min=-6.625 [C]\n   *************\n   *************  ** Warning ** CalcDoe2DXCoil: Coil:Cooling:DX:SingleSpeed=\"COIL COOLING DX SINGLE SPEED 4 5KBTU/HR 11.0EER\" - Full load outlet temperature indicates a possibility of frost/freeze error continues. Outlet air temperature statistics follow:\n   *************  **   ~~~   **   This error occurred 125 total times;\n   *************  **   ~~~   **   during Warmup 0 times;\n   *************  **   ~~~   **   during Sizing 0 times.\n   *************  **   ~~~   **   Max=1.998533  Min=-0.10908\n   *************\n   *************  ** Warning ** CalcDoe2DXCoil: Coil:Cooling:DX:SingleSpeed=\"COIL COOLING DX SINGLE SPEED 3 5KBTU/HR 11.0EER\" - Full load outlet temperature indicates a possibility of frost/freeze error continues. Outlet air temperature statistics follow:\n   *************  **   ~~~   **   This error occurred 137 total times;\n   *************  **   ~~~   **   during Warmup 0 times;\n   *************  **   ~~~   **   during Sizing 0 times.\n   *************  **   ~~~   **   Max=1.992892  Min=-1.970384E-002\n   *************\n   *************  ** Warning ** CalcDoe2DXCoil: Coil:Cooling:DX:SingleSpeed=\"COIL COOLING DX SINGLE SPEED 23 9KBTU/HR 10.6EER\" - Low condenser dry-bulb temperature error continues...\n   *************  **   ~~~   **   This error occurred 167 total times;\n   *************  **   ~~~   **   during Warmup 0 times;\n   *************  **   ~~~   **   during Sizing 0 times.\n   *************  **   ~~~   **   Max=-0.125 [C]  Min=-8.125 [C]\n   *************\n   *************  ** Warning ** CalcDoe2DXCoil: Coil:Cooling:DX:SingleSpeed=\"COIL COOLING DX SINGLE SPEED 2 10KBTU/HR 10.4EER\" - Low condenser dry-bulb temperature error continues...\n   *************  **   ~~~   **   This error occurred 251 total times;\n   *************  **   ~~~   **   during Warmup 0 times;\n   *************  **   ~~~   **   during Sizing 0 times.\n   *************  **   ~~~   **   Max=-5.551115E-017 [C]  Min=-7.125 [C]\n   *************\n   *************  ** Warning ** CalcDoe2DXCoil: Coil:Cooling:DX:SingleSpeed=\"COIL COOLING DX SINGLE SPEED 14 11KBTU/HR 10.1EER\" - Low condenser dry-bulb temperature error continues...\n   *************  **   ~~~   **   This error occurred 46 total times;\n   *************  **   ~~~   **   during Warmup 0 times;\n   *************  **   ~~~   **   during Sizing 0 times.\n   *************  **   ~~~   **   Max=-5.551115E-017 [C]  Min=-3.1 [C]\n   *************\n   *************  ** Warning ** CalcDoe2DXCoil: Coil:Cooling:DX:SingleSpeed=\"COIL COOLING DX SINGLE SPEED 21 5KBTU/HR 11.0EER\" - Full load outlet temperature indicates a possibility of frost/freeze error continues. Outlet air temperature statistics follow:\n   *************  **   ~~~   **   This error occurred 7 total times;\n   *************  **   ~~~   **   during Warmup 0 times;\n   *************  **   ~~~   **   during Sizing 0 times.\n   *************  **   ~~~   **   Max=1.996798  Min=0.848103\n   *************\n   *************  ** Warning ** CalcDoe2DXCoil: Coil:Cooling:DX:SingleSpeed=\"COIL COOLING DX SINGLE SPEED 22 5KBTU/HR 11.0EER\" - Full load outlet temperature indicates a possibility of frost/freeze error continues. Outlet air temperature statistics follow:\n   *************  **   ~~~   **   This error occurred 5 total times;\n   *************  **   ~~~   **   during Warmup 0 times;\n   *************  **   ~~~   **   during Sizing 0 times.\n   *************  **   ~~~   **   Max=1.755297  Min=1.047291\n   *************\n   *************  ** Warning ** CalcDoe2DXCoil: Coil:Cooling:DX:SingleSpeed=\"COIL COOLING DX SINGLE SPEED 1 88KBTU/HR 9.7EER\" - Full load outlet temperature indicates a possibility of frost/freeze error continues. Outlet air temperature statistics follow:\n   *************  **   ~~~   **   This error occurred 85 total times;\n   *************  **   ~~~   **   during Warmup 0 times;\n   *************  **   ~~~  
[...]
Cko/4gEbZoUlB9+QZsmBeWHX9CmSUH54Ve0aVqSrduVzaZo07QkW70ry03RpmlJtoZX9puiTdPuSlvHKytO0aZpSbaOV7Yc2jS0aWjTngjRpt0GbRraNLRplUGbhjat6V2hTZs9v+H1aNMeB23aNCt8S2tjdgFwwAEHHHDAAQcccMABB5zhcTYmHYAGGmiggQYaaKCBBhpooBmH5m1kB+CAAw444IADDjjggAMOOP3PQ5t2H7RpkzYtxtCm7QfQpu1fpk3bfRSLNU3J2ZtyDqacoynnZMo5m3IuppyrKWf2o3spyNXocFU6XJ0OV6nD1epw1TpcvQ5XscPV7OJqdrHd1a5mF1ezS1Ozl+vRZlH9djQhJv2E+t1oQkx67vvNaEJMeub7vWhCTHreBSuakmPqcb7GBCWakmOqcr7DBB+akmNqc77ABBmacg+a+pxvL8GEpuSY+pyvrn4N2ixGsKApOenHIzjQlJz0uAsGNCUnPe6C/0zJSY+7Yj+TglyNzjeYoj6TglylzpeY4j2Tgly9zveYIj2TbkZXs/NVphjPpCBXs/Nthu4M3Rm6sydCdGe3QXeG7gzdWWXQnaE7a3pX6M5mz294Pbqzx0F3Ns0K367amBUAHHDAAQcccMABBxxwwAFneJyNyQKggQYaaKCBBhpooIEGGmjGoXkbSQE44IADDjjggAMOOOCAA07/89Cd3Qfd2aQ7K2Pozg4D6M4OL9Sd7Y4m35kQtHcFHVxBR1fQyRV0dgVdXEFXV9Cnn9srSbZuh63cYWt32Oodtn6HreBha3jYKh62jhdbx4vv/rZ1vNg6Xto63qJBe8xSPGj9OfmnpJjQ+nPyW0BxofXn5DeAYkPrz8lPv+RDE4Jcja6sN0mJJgS5Sl3ZbZIVTQhy9bqy2CQxmnAzuppd2WqSG00IcjW7stIUPdpjjuRHE4Lyj0gypAlB+eGXHGlCUH74JUuaEJQffs2TpiTZul3ZbJoqTUmy1buy3DRbmpJka3hlv2nCNOWutHW8suI0Z5qSZOt4ZcuhTUObhjbtiRBt2m3QpqFNQ5tWGbRpaNOa3hXatNnzG16PNu1x0KZNs8K3tDZmFwAHHHDAAQcccMABBxxwwBkeZ2PSAWiggQYaaKCBBhpooIEGmnFo3kZ2AA444IADDjjggAMOOOCA0/88tGn3QZs2adP2Y2jTjgNo044v06advv4otFdx4wrau4IOrqCjK+jkCjq7gi6uoKsraPbrey3J1u2wlTts7Q5bvcPW77AVPGwND1vFw9bxYut48d3fto4XW8dLW8eXa9PmWf3aNCUn/5T6tWlKTn4L9GvTlJz8BujXpik5+ekXtGlSkKvRlfUmaNOkIFepK7tN0KZJQa5eVxaboE2TbkZXsytbTdCmSUGuZldWWr82bZ4jaNOkoPwjErRpUlB++AVtmhSUH35BmyYF5Ydf0aZpSbZuVzabok3Tkmz1riw3RZumJdkaXtlvijZNuyttHa+sOEWbpiXZOl7ZcmjT0KahTXsiRJt2G7RpaNPQplUGbRratKZ3hTZt9vyG16NNexy0adOs8C2tjdkFwAEHHHDAAQcccMABBxxwhsfZmHQAGmiggQYaaKCBBhpooIFmHJq3kR2AAw444IADDjjggAMOOOD0Pw9t2n3Qpk3atMMY2rTTANq008u0abuPYrGmKTl7U87BlHM05ZxMOWdTzsWUczXlzH50LwW5Gh2uSoer0+EqdbhaHa5ah6vX4Sp2uJpdXM0utrva1ezianZpavZyPdosqt+OJsSkn1C/G02ISc99vxlNiEnPfL8XTYhJz7tgRVNyTD3O15igRFNyTFXOd5jgQ1NyTG3OF5ggQ1PuQVOf8+0lmNCUHFOf89XVr0GbxQgWNCUn/XgEB5qSkx53wYCm5KTHXfCfKTnpcVfsZ1KQq9H5BlPUZ1KQq9T5ElO8Z1KQq9f5HlOkZ9LN6Gp2vsoU45kU5Gp2vs3QnaE7Q3f2RIju7DboztCdoTurDLozdGdN7wrd2ez5Da9Hd/Y46M6mWeHbVRuzAoADDjjggAMOOOCAAw444AyPszFZADTQQAMNNNBAAw000EADzTg0byMpAAcccMABBxxwwAEHHHDA6X8eurP7oDubdGfHMXRn5wF0Z+cX6s52R5PvTAjau4IOrqCjK+jkCjq7gi6uoKsr6NPP7ZUkW7fDVu6wtTts9Q5bv8NW8LA1PGwVD1vHi63jxXd/2zpebB0vbR1v0aA9ZiketP6c/FNSTGj9OfktoLjQ+nPyG0CxofXn5Kdf8qEJQa5GV9abpEQTglylruw2yYomBLl6XVlskhhNuBldza5sNcmNJgS5ml1ZaYoe7TFH8qMJQflHJBnShKD88EuONCEoP/ySJU0Iyg+/5klTkmzdrmw2TZWmJNnqXVlumi1NSbI1vLLfNGGaclfaOl5ZcZozTUmydbyy5dCmoU1Dm/ZEiDbtNmjT0KahTasM2jS0aU3vCm3a7PkNr0eb9jho06ZZ4VtaG7MLgAMOOOCAAw444IADDjjgDI+zMekANNBAAw000EADDTTQQAPNODRvIzsABxxwwAEHHHDAAQcccMDpfx7atPugTZu0aacxtGmXAbRpl5dp005ffxTaq7hxBe1dQQdX0NEVdHIFnV1BF1fQ1RU0+/W9lmTrdtjKHbZ2h63eYet32AoetoaHreJh63ixdbz47m9bx4ut46Wt48u1afOsfm2akpN/Sv3aNCUnvwX6tWlKTn4D9GvTlJz89AvaNCnI1ejKehO0aVKQq9SV3SZo06QgV68ri03Qpkk3o6vZla0maNOkIFezKyutX5s2zxG0aVJQ/hEJ2jQpKD/8gjZNCsoPv6BNk4Lyw69o07QkW7crm03RpmlJtnpXlpuiTdOSbA2v7DdFm6bdlbaOV1acok3Tkmwdr2w5tGlo09CmPRGiTbsN2jS0aWjTKoM2DW1a07tCmzZ7fsPr0aY9Dtq0aVb4ltbG7ALggAMOOOCAAw444IADDjjD42xMOgANNNBAAw000EADDTTQQDMOzdvIDsABBxxwwAEHHHDAAQcccPqfhzbtPmjTJm3aeQxt2nUAbdr1Zdq03UexWNOUnL0p52DKOZpyTqacsynnYsq5mnJmP7qXglyNDlelw9XpcJU6XK0OV63D1etwFTtczS6uZhfbXe1qdnE1uzQ1e7kebRbVb0cTYtJPqN+NJsSk577fjCbEpGe+34smxKTnXbCiKTmmHudrTFCiKTmmKuc7TPChKTmmNucLTJChKfegqc/59hJMaEqOqc/56urXoM1iBAuakpN+PIIDTclJj7tgQFNy0uMu+M+UnPS4K/YzKcjV6HyDKeozKchV6nyJKd4zKcjV63yPKdIz6WZ0NTtfZYrxTApyNTvfZujO0J2hO3siRHd2G3Rn6M7QnVUG3Rm6s6Z3he5s9vyG16M7exx0Z9Os8O2qjVkBwAEHHHDAAQcccMABBxxwhsfZmCwAGmiggQYaaKCBBhpooIFmHJq3kRSAAw444IADDjjggAMOOOD0Pw/d2X3QnU26s8sQurPzbvu6s18YX6c72x1NvjMhaO8KOriCjq6gkyvo7Aq6uIKurqBPP7dXkmzdDlu5w9busNU7bP0OW8HD1vCwVTxsHS+2jhff/W3reLF1vLR1vEWD9pileND6c/JPSTGh9efkt4DiQuvPyW8AxYbWn5OffsmHJgS5Gl1Zb5ISTQhylbqy2yQrmhDk6nVlsUliNOFmdDW7stUkN5oQ5Gp2ZaUperTHHMmPJgTlH5FkSBOC8sMvOdKEoPzwS5Y0ISg//JonTUmydbuy2TRVmpJkq3dluWm2NCXJ1vDKftOEacpdaet4ZcVpzjQlydbxypZDm4Y2DW3aEyHatNugTUObhjatMmjT0KY1vSu0abPnN7webdrjoE2bZoVvaW3MLgAOOOCAAw444IADDjjggDM8zsakA9BAAw000EADDTTQQAMNNOPQvI3sABxwwAEHHHDAAQcccMABp/95aNPugzZt0qZdx9CmxQDatHiZNu309UehvYobV9DeFXRwBR1dQSdX0NkVdHEFXV1Bs1/fa0m2boet3GFrd9jqHbZ+h63gYWt42Coeto4XW8eL7/62dbzYOl7aOr5cmzbP6temKTn5p9SvTVNy8lugX5um5OQ3QL82TcnJT7+gTZOCXI2urDdBmyYFuUpd2W2CNk0KcvW6stgEbZp0M7qaXdlqgjZNCnI1u7LS+rVp8xxBmyYF5R+RoE2TgvLDL2jTpKD88AvaNCkoP/yKNk1LsnW7stkUbZqWZKt3Zbkp2jQtydbwyn5TtGnaXWnreGXFKdo0LcnW8cqWQ5uGNg1t2hMh2rTboE1Dm4Y2rTJo09CmNb0rtGmz5ze8Hm3a46BNm2aFb2ltzC4ADjjggAMOOOCAAw444IAzPM7GpAPQQAMNNNBAAw000EADDTTj0LyN7AAccMABBxxwwAEHHHDAAaf/eWjT7oM27Zs27TiGNa0MYE0rWNP6grCmfT8Ia9qiJKxpWNOwpmFNw5qGNQ1rGtY0rGm/ejNiTft+ENa07wZhTcOahjUNa5otCWvasiSsaTkM1jSsaZ8Ha9o3fKxpnwdr2pLBmtb2eqxpWNOa3hXWtNnzG16PNe1xsKZNs8KXtDYmFwAHHHDAAQcccMABBxxwwBkeZ2POAWiggQYaaKCBBhpooIEGmnFo3sZ1AA444IADDjjggAMOOOCA0/88rGn3wZo2WdN2Y2jT9gNo0/Yv06btPorFmqbk7E05B1PO0ZRzMuWcTTkXU87VlDP70b0U5Gp0uCodrk6Hq9ThanW4ah2uXoer2OFqdnE1u9jualezi6vZpanZy/Vos6h+O5oQk35C/W40ISY99/1mNCEmPfP9XjQhJj3vghVNyTH1OF9jghJNyTFVOd9hgg9NyTG1OV9gggxNuQdNfc63l2BCU3JMfc5XV78GbRYjWNCUnPTjERxoSk563AUDmpKTHnfBf6bkpMddsZ9JQa5G5xtMUZ9JQa5S50tM8Z5JQa5e53tMkZ5JN6Or2fkqU4xnUpCr2fk2Q3eG7gzd2RMhurPboDtDd4burDLoztCdNb0rdGez5ze8Ht3Z46A7m2aFb1dtzAoADjjggAMOOOCAAw444IAzPM7GZAHQQAMNNNBAAw000EADDTTj0LyNpAAccMABBxxwwAEHHHDAAaf/eejO7oPubNKdxRi6s8MAurPDC3Vnu6PJdyYE7V1BB1fQ0RV0cgWdXUEXV9DVFfTp5/ZKkq3bYSt32NodtnqHrd9hK3jYGh62ioet48XW8eK7v20dL7aOl7aOt2jQHrMUD1p/Tv4pKSa0/pz8FlBcaP05+Q2g2ND6c/LTL/nQhCBXoyvrTVKiCUGuUld2m2RFE4Jcva4sNkmMJtyMrmZXtprkRhOCXM2urDRFj/aYI/nRhKD8I5IMaUJQfvglR5oQlB9+yZImBOWHX/OkKUm2blc2m6ZKU5Js9a4sN82WpiTZGl7Zb5owTbkrbR2vrDjNmaYk2Tpe2XJo09CmoU17IkSbdhu0aWjT0KZVBm0a2rSmd4U2bfb8htejTXsctGnTrPAtrY3ZBcABBxxwwAEHHHDAAQcccIbH2Zh0ABpooIEGGmiggQYaaKCBZhyat5EdgAMOOOCAAw444IADDjjg9D8Pbdp90KZN2rQyhjbtOIA27fgybdrp649CexU3rqC9K+jgCjq6gk6uoLMr6OIKurqCZr++15Js3Q5bucPW7rDVO2z9DlvBw9bwsFU8bB0vto4X3/1t63ixdby0dXy5Nm2e1a9NU3LyT6lfm6bk5LdAvzZNyclvgH5tmpKTn35BmyYFuRpdWW+CNk0KcpW6stsEbZoU5Op1ZbEJ2jTpZnQ1u7LVBG2aFORqdmWl9WvT5jmCNk0Kyj8iQZsmBeWHX9CmSUH54Re0aVJQfvgVbZqWZOt2ZbMp2jQtyVbvynJTtGlakq3hlf2maNO0u9LW8cqKU7RpWpKt45UthzYNbRratCdCtGm3QZuGNg1tWmXQpqFNa3pXaNNmz294Pdq0x0GbNs0K39LamF0AHHDAAQcccMABBxxwwAFneJyNSQeggQYaaKCBBhpooIEGGmjGoXkb2QE44IADDjjggAMOOOCAA07/89Cm3Qdt2qRN24+hTTsNoE07vUybtvsoFmuakrM35RxMOUdTzsmUczblXEw5V1PO7Ef3UpCr0eGqdLg6Ha5Sh6vV4ap1uHodrmKHq9nF1exiu6tdzS6uZpemZi/Xo82i+u1oQkz6CfW70YSY9Nz3m9GEmPTM93vRhJj0vAtWNCXH1ON8jQlKNCXHVOV8hwk+NCXH1OZ8gQkyNOUeNPU5316CCU3JMfU5X139GrRZjGBBU3LSj0dwoCk56XEXDGhKTnrcBf+ZkpMed8V+JgW5Gp1vMEV9JgW5Sp0vMcV7JgW5ep3vMUV6Jt2Mrmbnq0wxnklBrmbn2wzdGbozdGdPhOjOboPuDN0ZurPKoDtDd9b0rtCdzZ7f8Hp0Z4+D7myaFb5dtTErADjggAMOOOCAAw444IADzvA4G5MFQAMNNNBAAw000EADDTTQjEPzNpICcMABBxxwwAEHHHDAAQec/uehO7sPurNJd3YYQ3d2HkB3dn6h7mx3NPnOhKC9K+jgCjq6gk6uoLMr6OIKurqCPv3cXkmydTts5Q5bu8NW77D1O2wFD1vDw1bxsHW82DpefPe3rePF1vHS1vEWDdpjluJB68/JPyXFhNafk98CigutPye/ARQbWn9OfvolH5oQ5Gp0Zb1JSjQhyFXqym6TrGhCkKvXlcUmidGEm9HV7MpWk9xoQpCr2ZWVpujRHnMkP5oQlH9EkiFNCMoPv+RIE4Lywy9Z0oSg/PBrnjQlydbtymbTVGlKkq3eleWm2dKUJFvDK/tNE6Ypd6Wt45UVpznTlCRbxytbDm0a2jS0aU+EaNNugzYNbRratMqgTUOb1vSu0KbNnt/werRpj4M2bZoVvqW1MbsAOOCAAw444IADDjjggAPO8Dgbkw5AAw000EADDTTQQAMNNNCMQ/M2sgNwwAEHHHDAAQcccMABB5z+56FNuw/atEmbdhxDm3YZQJt2eZk27fT1R6G9ihtX0N4VdHAFHV1BJ1fQ2RV0cQVdXUGzX99rSbZuh63cYWt32Oodtn6HreBha3jYKh62jhdbx4vv/rZ1vNg6Xto6vlybNs/q16YpOfmn1K9NU3LyW6Bfm6bk5DdAvzZNyclPv6BNk4Jcja6sN0GbJgW5Sl3ZbYI2TQpy9bqy2ARtmnQzuppd2WqCNk0KcjW7stL6tWnzHEGbJgXlH5GgTZOC8sMvaNOkoPzwC9o0KSg//Io2TUuydbuy2RRtmpZkq3dluSnaNC3J1vDKflO0adpdaet4ZcUp2jQtydbxypZDm4Y2DW3aEyHatNugTUObhjatMmjT0KY1vSu0abPnN7webdrjoE2bZoVvaW3MLgAOOOCAAw444IADDjjggDM8zsakA9BAAw000EADDTTQQAMNNOPQvI3sABxwwAEHHHDAAQcccMABp/95aNPugzZt0qadxtCmXQfQpl1fpk3bfRSLNU3J2ZtyDqacoynnZMo5m3IuppyrKWf2o3spyNXocFU6XJ0OV6nD1epw1TpcvQ5XscPV7OJqdrHd1a5mF1ezS1Ozl+vRZlH9djQhJv2E+t1oQkx67vvNaEJMeub7vWhCTHreBSuakmPqcb7GBCWakmOqcr7DBB+akmNqc77ABBmacg+a+pxvL8GEpuSY+pyvrn4N2ixGsKApOenHIzjQlJz0uAsGNCUnPe6C/0zJSY+7Yj+TglyNzjeYoj6TglylzpeY4j2Tgly9zveYIj2TbkZXs/NVphjPpCBXs/Nthu4M3Rm6sydCdGe3QXeG7gzdWWXQnaE7a3pX6M5mz294Pbqzx0F3Ns0K367amBUAHHDAAQcccMABBxxwwAFneJyNyQKggQYaaKCBBhpooIEGGmjGoXkbSQE44IADDjjggAMOOOCAA07/89Cd3Qfd2aQ7Ow+hO7vstq87+4Xxdbqz3dHkOxOC9q6ggyvo6Ao6uYLOrqCLK+jqCvr0c3slydbtsJU7bO0OW73D1u+wFTxsDQ9bxcPW8WLrePHd37aOF1vHS1vHWzRoj1mKB60/J/+UFBNaf05+CygutP6c/AZQbGj9Ofnpl3xoQpCr0ZX1JinRhCBXqSu7TbKiCUGuXlcWmyRGE25GV7MrW01yowlBrmZXVpqiR3vMkfxoQlD+EUmGNCEoP/ySI00Iyg+/ZEkTgvLDr3nSlCRbtyubTVOlKUm2eleWm2ZLU5JsDa/sN02YptyVto5XVpzmTFOSbB2vbDm0aWjT0KY9EaJNuw3aNLRpaNMqgzYNbVrTu0KbNnt+w+vRpj0O2rRpVviW1sbsAuCAAw444IADDjjggAMOOMPjbEw6AA000EADDTTQQAMNNNBAMw7N28gOwAEHHHDAAQcccMABBxxw+p+HNu0+aNMmbdplDG1aDKBNi5dp005ffxTaq7hxBe1dQQdX0NEVdHIFnV1BF1fQ1RU0+/W9lmTrdtjKHbZ2h63eYet32AoetoaHreJh63ixdbz47m9bx4ut46Wt48u1afOsfm2akpN/Sv3aNCUnvwX6tWlKTn4D9GvTlJz89AvaNCnI1ejKehO0aVKQq9SV3SZo06QgV68ri03Qpkk3o6vZla0maNOkIFezKyutX5s2zxG0aVJQ/hEJ2jQpKD/8gjZNCsoPv6BNk4Lyw69o07QkW7crm03RpmlJtnpXlpuiTdOSbA2v7DdFm6bdlbaOV1acok3Tkmwdr2w5tGlo09CmPRGiTbsN2jS0aWjTKoM2DW1a07tCmzZ7fsPr0aY9Dtq0aVb4ltbG7ALggAMOOOCAAw444IADDjjD42xMOgANNNBAAw000EADDTTQQDMOzdvIDsABBxxwwAEHHHDAAQcccPqfhzbtPmjTJm3adQxtWhlAm1Zepk3bfRSLNU3J2ZtyDqacoynnZMo5m3IuppyrKWf2o3spyNXocFU6XJ0OV6nD1epw1TpcvQ5XscPV7OJqdrHd1a5mF1ezS1Ozl+vRZlH9djQhJv2E+t1oQkx67vvNaEJMeub7vWhCTHreBSuakmPqcb7GBCWakmOqcr7DBB+akmNqc77ABBmacg+a+pxvL8GEpuSY+pyvrn4N2ixGsKApOenHIzjQlJz0uAsGNCUnPe6C/0zJSY+7Yj+TglyNzjeYoj6TglylzpeY4j2Tgly9zveYIj2TbkZXs/NVphjPpCBXs/Nthu4M3Rm6sydCdGe3QXeG7gzdWWXQnaE7a3pX6M5mz294Pbqzx0F3Ns0K367amBUAHHDAAQcccMABBxxwwAFneJyNyQKggQYaaKCBBhpooIEGGmjGoXkbSQE44IADDjjggAMOOOCAA07/89Cd3Qfd2Tfd2WkM29l+ANvZHtsZtrPv/8ge2xm2M2xn2M6WBGE7w3aG7QzbGbYzbGfYzrCdNS0ubGfYzhYFYTv7fhC2s+8HYTv7fhC2swwG2xm2s8+D7ewbPrazz4PtbMlgO2t7PbYzbGdN7wrb2ez5Da/HdvY42M6mWeHLVRuTAoADDjjggAMOOOCAAw444AyPszFXADTQQAMNNNBAAw000EADzTg0b+MoAAcccMABBxxwwAEHHHDA6X8etrP7YDubbGe7MXRnhwF0Z4cX6s52R5PvTAjau4IOrqCjK+jkCjq7gi6uoKsr6NPP7ZUkW7fDVu6wtTts9Q5bv8NW8LA1PGwVD1vHi63jxXd/2zpebB0vbR1v0aA9ZiketP6c/FNSTGj9OfktoLjQ+nPyG0CxofXn5Kdf8qEJQa5GV9abpEQTglylruw2yYomBLl6XVlskhhNuBldza5sNcmNJgS5ml1ZaYoe7TFH8qMJQflHJBnShKD88EuONCEoP/ySJU0Iyg+/5klTkmzdrmw2TZWmJNnqXVlumi1NSbI1vLLfNGGaclfaOl5ZcZozTUmydbyy5dCmoU1Dm/ZEiDbtNmjT0KahTasM2jS0aU3vCm3a7PkNr0eb9jho06ZZ4VtaG7MLgAMOOOCAAw444IADDjjgDI+zMekANNBAAw000EADDTTQQAPNODRvIzsABxxwwAEHHHDAAQcccMDpfx7atPugTZu0aTGGNu04gDbt+DJt2unrj0J7FTeuoL0r6OAKOrqCTq6gsyvo4gq6uoJmv77XkmzdDlu5w9busNU7bP0OW8HD1vCwVTxsHS+2jhff/W3reLF1vLR1fLk2bZ7Vr01TcvJPqV+bpuTkt0C/Nk3JyW+Afm2akpOffkGbJgW5Gl1Zb4I2TQpylbqy2wRtmhTk6nVlsQnaNOlmdDW7stUEbZoU5Gp2ZaX1a9PmOYI2TQrKPyJBmyYF5Ydf0KZJQfnhF7RpUlB++BVtmpZk63ZlsynaNC3JVu/KclO0aVqSreGV/aZo07S70tbxyopTtGlakq3jlS2HNg1tGtq0J0K0abdBm4Y2DW1aZdCmoU1reldo02bPb3g92rTHQZs2zQrf0tqYXQAccMABBxxwwAEHHHDAAWd4nI1JB6CBBhpooIEGGmiggQYaaMaheRvZATjggAMOOOCAAw444IADTv/z0KbdB23apE0rY2jTTgNo004v06btPorFmqbk7E05B1PO0ZRzMuWcTTkXU87VlDP70b0U5Gp0uCodrk6Hq9ThanW4ah2uXoer2OFqdnE1u9jualezi6vZpanZy/Vos6h+O5oQk35C/W40ISY99/1mNCEmPfP9XjQhJj3vghVNyTH1OF9jghJNyTFVOd9hgg9NyTG1OV9gggxNuQdNfc63l2BCU3JMfc5XV78GbRYjWNCUnPTjERxoSk563AUDmpKTHnfBf6bkpMddsZ9JQa5G5xtMUZ9JQa5S50tM8Z5JQa5e53tMkZ5JN6Or2fkqU4xnUpCr2fk2Q3eG7gzd2RMhurPboDtDd4burDLoztCdNb0rdGez5ze8Ht3Z46A7m2aFb1dtzAoADjjggAMOOOCAAw444IAzPM7GZAHQQAMNNNBAAw000EADDTTj0LyNpAAccMABBxxwwAEHHHDAAaf/eejO7oPubNKd7cfQnZ0H0J2dX6g72x1NvjMhaO8KOriCjq6gkyvo7Aq6uIKurqBPP7dXkmzdDlu5w9busNU7bP0OW8HD1vCwVTxsHS+2jhff/W3reLF1vLR1vEWD9pileND6c/JPSTGh9efkt4DiQuvPyW8AxYbWn5OffsmHJgS5Gl1Zb5ISTQhylbqy2yQrmhDk6nVlsUliNOFmdDW7stUkN5oQ5Gp2ZaUperTHHMmPJgTlH5FkSBOC8sMvOdKEoPzwS5Y0ISg//JonTUmydbuy2TRVmpJkq3dluWm2NCXJ1vDKftOEacpdaet4ZcVpzjQlydbxypZDm4Y2DW3aEyHatNugTUObhjatMmjT0KY1vSu0abPnN7webdrjoE2bZoVvaW3MLgAOOOCAAw444IADDjjggDM8zsakA9BAAw000EADDTTQQAMNNOPQvI3sABxwwAEHHHDAAQcccMABp/95aNPugzZt0qYdxtCmXQbQpl1epk07ff1RaK/ixhW0dwUdXEFHV9DJFXR2BV1cQVdX0OzX91qSrdthK3fY2h22eoet32EreNgaHraKh63jxdbx4ru/bR0vto6Xto4v16bNs/q1aUpO/in1a9OUnPwW6NemKTn5DdCvTVNy8tMvaNOkIFejK+tN0KZJQa5SV3aboE2Tgly9riw2QZsm3YyuZle2mqBNk4Jcza6stH5t2jxH0KZJQflHJGjTpKD88AvaNCkoP/yCNk0Kyg+/ok3Tkmzdrmw2RZumJdnqXVluijZNS7I1vLLfFG2adlfaOl5ZcYo2TUuydbyy5dCmoU1Dm/ZEiDbtNmjT0KahTasM2jS0aU3vCm3a7PkNr0eb9jho06ZZ4VtaG7MLgAMOOOCAAw444IADDjjgDI+zMekANNBAAw000EADDTTQQAPNODRvIzsABxxwwAEHHHDAAQcccMDpfx7atPugTZu0accxtGnXAbRp15dp03YfxWJNU3L2ppyDKedoyjmZcs6mnIsp52rKmf3oXgpyNTpclQ5Xp8NV6nC1Oly1Dlevw1XscDW7uJpdbHe1q9nF1ezS1OzlerRZVL8dTYhJP6F+N5oQk577fjOaEJOe+X4vmhCTnnfBiqbkmHqcrzFBiabkmKqc7zDBh6bkmNqcLzBBhqbcg6Y+59tLMKEpOaY+56urX4M2ixEsaEpO+vEIDjQlJz3uggFNyUmPu+A/U3LS467Yz6QgV6PzDaaoz6QgV6nzJaZ4z6QgV6/zPaZIz6Sb0dXsfJUpxjMpyNXsfJuhO0N3hu7siRDd2W3QnaE7Q3dWGXRn6M6a3hW6s9nzG16P7uxx0J1Ns8K3qzZmBQAHHHDAAQcccMABBxxwwBkeZ2OyAGiggQYaaKCBBhpooIEGmnFo3kZSAA444IADDjjggAMOOOCA0/88dGf3QXc26c5OQ+jOrrvt685+YXyd7mx3NPnOhKC9K+jgCjq6gk6uoLMr6OIKurqCPv3cXkmydTts5Q5bu8NW77D1O2wFD1vDw1bxsHW82DpefPe3rePF1vHS1vEWDdpjluJB68/JPyXFhNafk98CigutPye/ARQbWn9OfvolH5oQ5Gp0Zb1JSjQhyFXqym6TrGhCkKvXlcUmidGEm9HV7MpWk9xoQpCr2ZWVpujRHnMkP5oQlH9EkiFNCMoPv+RIE4Lywy9Z0oSg/PBrnjQlydbtymbTVGlKkq3eleWm2dKUJFvDK/tNE6Ypd6Wt45UVpznTlCRbxytbDm0a2jS0aU+EaNNugzYNbRratMqgTUOb1vSu0KbNnt/werRpj4M2bZoVvqW1MbsAOOCAAw444IADDjjggAPO8Dgbkw5AAw000EADDTTQQAMNNNCMQ/M2sgNwwAEHHHDAAQcccMABB5z+56FNuw/atEmbdh5DmxYDaNPiZdq009cfhfYqblxBe1fQwRV0dAWdXEFnV9DFFXR1Bc1+fa8l2bodtnKHrd1hq3fY+h22goet4WGreNg6XmwdL77729bxYut4aev4cm3aPKtfm6bk5J9SvzZNyclvgX5tmpKT3wD92jQlJz/9gjZNCnI1urLeBG2aFOQqdWW3Cdo0KcjV68piE7Rp0s3oanZlqwnaNCnI1ezKSuvXps1zBG2aFJR/RII2TQrKD7+gTZOC8sMvaNOkoPzwK9o0LcnW7cpmU7RpWpKt3pXlpmjTtCRbwyv7TdGmaXelreOVFado07QkW8crWw5tGto0tGlPhGjTboM2DW0a2rTKoE1Dm9b0rtCmzZ7f8Hq0aY+DNm2aFb6ltTG7ADjggAMOOOCAAw444IADzvA4G5MOQAMNNNBAAw000EADDTTQjEPzNrIDcMABBxxwwAEHHHDAAQec/uehTbsP2rRJm3YZQ5tWBtCmlZdp03YfxWJNU3L2ppyDKedoyjmZcs6mnIsp52rKmf3oXgpyNTpclQ5Xp8NV6nC1Oly1Dlevw1XscDW7uJpdbHe1q9nF1ezS1OzlerRZVL8dTYhJP6F+N5oQk577fjOaEJOe+X4vmhCTnnfBiqbkmHqcrzFBiabkmKqc7zDBh6bkmNqcLzBBhqbcg6Y+59tLMKEpOaY+56urX4M2ixEsaEpO+vEIDjQlJz3uggFNyUmPu+A/U3LS467Yz6QgV6PzDaaoz6QgV6nzJaZ4z6QgV6/zPaZIz6Sb0dXsfJUpxjMpyNXsfJuhO0N3hu7siRDd2W3QnaE7Q3dWGXRn6M6a3hW6s9nzG16P7uxx0J1Ns8K3qzZmBQAHHHDAAQcccMABBxxwwBkeZ2OyAGiggQYaaKCBBhpooIEGmnFo3kZSAA444IADDjjggAMOOOCA0/88dGf3QXc26c6uY+jO9gPozvYv1J3tjibfmRC0dwUdXEFHV9DJFXR2BV1cQVdX0Kef2ytJtm6Hrdxha3fY6h22foet4GFreNgqHraOF1vHi+/+tnW82Dpe2jreokF7zFI8aP05+aekmND6c/JbQHGh9efkN4BiQ+vPyU+/5EMTglyNrqw3SYkmBLlKXdltkhVNCHL1urLYJDGacDO6ml3ZapIbTQhyNbuy0hQ92mOO5EcTgvKPSDKkCUH54ZccaUJQfvglS5oQlB9+zZOmJNm6XdlsmipNSbLVu7LcNFuakmRreGW/acI05a60dbyy4jRnmpJk63hly6FNQ5uGNu2JEG3abdCmoU1Dm1YZtGlo05reFdq02fMbXo827XHQpk2zwre0NmYXAAcccMABBxxwwAEHHHDAGR5nY9IBaKCBBhpooIEGGmiggQaacWjeRnYADjjggAMOOOCAAw444IDT/zy0afdBm/ZNm3Yew5p2GMCadsCa1heENe37QVjTFiVhTcOahjUNaxrWNKxpWNOwpmFN+9WbEWva94Owpn03CGsa1jSsaVjTsKYtSsKaVhusab8+S/73aaxp9Wisad/wsaZ9HqxpSwZrWtvrsaZhTWt6V1jTZs9veD3WtMfBmjbNCl/S2phcABxwwAEHHHDAAQcccMABZ3icjTkHoIEGGmiggQYaaKCBBhpoxqF5G9cBOOCAAw444IADDjjggANO//Owpt0Ha9pkTduNoU07DqBNO75Mm3b6+qPQXsWNK2jvCjq4go6uoJMr6OwKuriCrq6g2a/vtSRbt8NW7rC1O2z1Dlu/w1bwsDU8bBUPW8eLrePFd3/bOl5sHS9tHV+uTZtn9WvTlJz8U+rXpik5+S3Qr01TcvIboF+bpuTkp1/QpklBrkZX1pugTZOCXKWu7DZBmyYFuXpdWWyCNk26GV3Nrmw1QZsmBbmaXVlp/dq0eY6gTZOC8o9I0KZJQfnhF7RpUlB++AVtmhSUH35Fm6Yl2bpd2WyKNk1LstW7stwUbZqWZGt4Zb8p2jTtrrR1vLLiFG2almTreGXLoU1Dm4Y27YkQbdpt0KahTUObVhm0aWjTmt4V2rTZ8xtejzbtcdCmTbPCt7Q2ZhcABxxwwAEHHHDAAQcccMAZHmdj0gFooIEGGmiggQYaaKCBBppxaN5GdgAOOOCAAw444IADDjjggNP/PLRp90GbNmnTYgxt2mkAbdrpZdq03UexWNOUnL0p52DKOZpyTqacsynnYsq5mnJmP7qXglyNDlelw9XpcJU6XK0OV63D1etwFTtczS6uZhfbXe1qdnE1uzQ1e7kebRbVb0cTYtJPqN+NJsSk577fjCbEpGe+34smxKTnXbCiKTmmHudrTFCiKTmmKuc7TPChKTmmNucLTJChKfegqc/59hJMaEqOqc/56urXoM1iBAuakpN+PIIDTclJj7tgQFNy0uMu+M+UnPS4K/YzKcjV6HyDKeozKchV6nyJKd4zKcjV63yPKdIz6WZ0NTtfZYrxTApyNTvfZujO0J2hO3siRHd2G3Rn6M7QnVUG3Rm6s6Z3he5s9vyG16M7exx0Z9Os8O2qjVkBwAEHHHDAAQcccMABBxxwhsfZmCwAGmiggQYaaKCBBhpooIFmHJq3kRSAAw444IADDjjggAMOOOD0Pw/d2X3QnU26szKG7uw8gO7s/ELd2e5o8p0JQXtX0MEVdHQFnVxBZ1fQxRV0dQV9+rm9kmTrdtjKHbZ2h63eYet32AoetoaHreJh63ixdbz47m9bx4ut46Wt4y0atMcsxYPWn5N/SooJrT8nvwUUF1p/Tn4DKDa0/pz89Es+NCHI1ejKepOUaEKQq9SV3SZZ0YQgV68ri00Sowk3o6vZla0mudGEIFezKytN0aM95kh+NCEo/4gkQ5oQlB9+yZEmBOWHX7KkCUH54dc8aUqSrduVzaap0pQkW70ry02zpSlJtoZX9psmTFPuSlvHKytOc6YpSbaOV7Yc2jS0aWjTngjRpt0GbRraNLRplUGbhjat6V2hTZs9v+H1aNMeB23aNCt8S2tjdgFwwAEHHHDAAQcccMABB5zhcTYmHYAGGmiggQYaaKCBBhpooBmH5m1kB+CAAw444IADDjjggAMOOP3PQ5t2H7RpkzZtP4Y27TKANu3yMm3a6euPQnsVN66gvSvo4Ao6uoJOrqCzK+jiCrq6gma/vteSbN0OW7nD1u6w1Tts/Q5bwcPW8LBVPGwdL7aOF9/9bet4sXW8tHV8uTZtntWvTVNy8k+pX5um5OS3QL82TcnJb4B+bZqSk59+QZsmBbkaXVlvgjZNCnKVurLbBG2aFOTqdWWxCdo06WZ0Nbuy1QRtmhTkanZlpfVr0+Y5gjZNCso/IkGbJgXlh1/QpklB+eEXtGlSUH74FW2almTrdmWzKdo0LclW78pyU7RpWpKt4ZX9pmjTtLvS1vHKilO0aVqSreOVLYc2DW0a2rQnQrRpt0GbhjYNbVpl0KahTWt6V2jTZs9veD3atMdBmzbNCt/S2phdABxwwAEHHHDAAQcccMABZ3icjUkHoIEGGmiggQYaaKCBBhpoxqF5G9kBOOCAAw444IADDjjggANO//PQpt0HbdqkTTuMoU27DqBNu6JN6wtCm/b9ILRpi5LQpqFNQ5uGNg1tGto0tGlo09Cm/erNiDbt+0Fo074bhDYNbRraNLRptiS0acuS0KblMGjT0KZ9HrRp3/DRpn0etGlLBm1a2+vRpqFNa3pXaNNmz294Pdq0x0GbNs0K39LamF0AHHDAAQcccMABBxxwwAFneJyNSQeggQYaaKCBBhpooIEGGmjGoXkb2QE44IADDjjggAMOOOCAA07/89Cm3Qdt2jdt2mUIa1rsdtvXpt0gX+VN230UizZNydmbcg6mnKMp52TKOZtyLqacqyln9qt7KcjV6HBVOlydDlepw9XqcNU6XL0OV7HD1ezianax3dWuZhdXs0tTs5f70WZR/Xo0ISb9hPrlaEJMeu771WhCTHrm+8VoQkx63gUtmpJj6nG+xgQnmpJjqnK+wwQhmpJjanO+wAQbmnIPmvqcby9BhabkmPqcr65+D9osRtCgKTnpxyNI0JSc9LgLCjQlJz3uggBNyUmPu6I/k4Jcjc43mOI+k4Jcpc6XmCI+k4Jcvc73mGI9k25GV7PzVaYoz6QgV7PzbYbvDN8ZvrMnQnxnt8F3hu8M31ll8J3hO2t6V/jOZs9veD2+s8fBdzbNCl+v2pgWABxwwAEHHHDAAQcccMABZ3icjdkCoIEGGmiggQYaaKCBBhpoxqF5G0sBOOCAAw444IADDjjggANO//Pwnd0H39k339l1EN9ZjOA7i5f5zuKw+9g9TBws+jNj7H6d2MM6scd1Yk/rxJ7Xib2sE3tdJ3b2a39n7krnLFY6aLHSSYuVjlqsdNZipcMWK522WOm4xUrnrax03spae22l81ZWOm9FOW/LvXK15H7NnC916afbL6HzpS69yfoVdb7UpbdYv8DOl7r0BhP0dsbYdU7X4j8XBBeeMXadA7b4bwVBnGeMXeeMLf5DQbDsGbfCOqds8V8JgpLPGLvOKVv8J0K/v6+WKuj8jLFLP1pB9meMXXqBCSpAY+zSC0wQBRpjl15gikbQmbvSOVv8l4LiHHTmrnTUFv+xoAgKnbkrnbbFfy8oNkPnnljpvC3+k0FRHzpzVzpvi/9qwJOIJxFP4hMhnsTb4EnEk4gnsTJ4EvEkNr0rPImz5ze8Hk/i4+BJnGaFr2VuTCcCDjjggAMOOOCAAw444IAzPM7GLCPQQAMNNNBAAw000EADDTTj0LyN3QQccMABBxxwwAEHHHDAAaf/ef8NnsR/+vKH//jy82/+/J8/f/nhf/7t/0KbuC1t4pef/+vH33754Z9/c2ve3//003/8cPt/2O17zofd3w6iUCwjKBTLyxSKp+vH9WEuV4tB0Ze6XyX1sErqcZXU0yqp51VSL6ukXldJnQkOjLHrnK5Y53jFOucr1jlgsc4Ji3WOWKxzxmKdQxbrnLKyzikrK+2wdU5ZWeeUFeGULVclVoL7TYm20IWfbL8n0Ra68O7qtyTaQhfeW/2ORFvowjtLMCT6Ulc5U0v/LBD0iL7UVY7V0r8JBDeiL3WVk7X0DwJBjOjbAaucraV/DQhWRF/qKmdr6Z8C/UrESqhgRPSlLvxYBR+iL3XhlSXYEH2pC68swYXoS114ZSkmRGPsOqdr6V8EigbRGLvOAVv6R4HiQDTGrnPGlv5doAgQjVthnVO29E8DxX5ojF3nlC396wD1IepD1IdPhKgPb4P6EPUh6sPKoD5Efdj0rlAfzp7f8HrUh4+D+nCaFb5puTFDCDjggAMOOOCAAw444IADzvA4GxOHQAMNNNBAAw000EADDTTQjEPzNsIScMABBxxwwAEHHHDAAQec/uehPvz1eVv14V+Vh3/35et//J8//MuPX/7457/KD//xt//65Xf/+cvn/79/OA8jQdyPIEHcv0yC+PWnp70SJlPO3pRzMOUcTTknU87ZlHMx5VxNOTO7gBTkanS4Kh2uToer1OFqdbhqHa5eh6vY4Wp2cTW72O5qV7OLq9mlqdnLpX2zqH5NnxCTfkL9Kj4hJj33/bo9ISY98/1KPSEmPe+CNk/JMfU4X2OCDE/JMVU532GC4k7JMbU5X2CCuE65B019zreXoKNTckx9zldXv2RuFiNo5ZSc9OMR1HFKTnrcBT2ckpMed0EBp+Skx13RvElBrkbnG0yRt0lBrlLnS0xRsklBrl7ne0wRrUk3o6vZ+SpT9GlSkKvZ+TZDijaEFI1/5p/5Z/6Zf+af+Wf+mX/mn/ln/pl/5p/5Z/6Zf97SP//l46f/+vLzzz/+7ss//Ob2P1TFxw4p/sM7QYo/DVL8pkGKjxS/YZDifx6k+J8HKX7jIMVHiv+rgxQfHHDAAQcccMABBxxwwAEHnBGUktBAAw000EADDTTQQAMNNOPQvI3KEhxwwAEHHHDAAQcccMABp/95/w1S/P/74x++/PFPP/70x3//8qc/ocTflhL/p5//7Yf/9/vf//jbH7/88bd/mUT4r1Xg31/96V8e/+9v//2v/zml3//L9B//8tPv/nL7z3/98x/+/W/+x/8HKcuCaw=="
               },
               {
                  "name" : "annual_peak_electric_demand",
                  "units" : "kW",
                  "value" : 207.90029000000001
               },
               {
                  "name" : "first_year_capital_cost",
                  "units" : "$",
                  "value" : 0
               },
               {
                  "name" : "annual_utility_cost",
                  "units" : "$",
                  "value" : 55285.43
               },
               {
                  "name" : "total_lifecycle_cost",
                  "units" : "$",
                  "value" : 925611.42000000004
               }
            ],
            "step_warnings" : [ "A table in Annual Overview section returned false and was skipped." ]
         }
      }
   ],
   "updated_at" : "20170710T192529Z",
   "weather_file" : "USA_CO_Denver.Intl.AP.725650_TMY3.epw"
}
