{
   "completed_at" : "20170710T192158Z",
   "completed_status" : "Success",
   "created_at" : "2017-07-10 19:19:55 +0000",
   "current_step" : 5,
   "description" : "",
   "eplusout_err" : "Program Version,EnergyPlus, Version 8.7.0-78a111df4a, YMD=2017.07.10 19:21,IDD_Version 8.7.0\n   ************* IDF Context for following error/warning message:\n   ************* Note -- lines truncated at 300 characters, if necessary...\n   *************      5 Building,\n   ************* indicated Name=NECB 2011-SmallOffice-NECB HDD Method-CAN_ON_Trenton.716210_CWEC.epw created: 2017-07-10 19:20:01 +0000\n   ************* Only last 1 lines before error line shown.....\n   *************      6   NECB 2011-SmallOffice-NECB HDD Method-CAN_ON_Trenton.716210_CWEC.epw created: 2017-07-10 19:20:01 +0000, !- Name\n   ** Warning ** IP: IDF line~6 Alpha Argument length exceeds maximum, will be truncated=  NECB 2011-SmallOffice-NECB HDD Method-CAN_ON_Trenton.716210_CWEC.epw created: 2017-07-10 19:20:01 +000\n   **   ~~~   ** Will be processed as Alpha=NECB 2011-SMALLOFFICE-NECB HDD METHOD-CAN_ON_TRENTON.716210_CWEC.EPW CREATED: 2017-07-10 19:20:01 +0000\n   ************* Beginning Zone Sizing Calculations\n   ** Warning ** ProcessScheduleInput: Schedule:Day:Interval=\"ECONOMIZER MAX OA FRACTION 100 PCT DEFAULT\", Blank Schedule Type Limits Name input -- will not be validated.\n   ** Warning ** ProcessScheduleInput: Schedule:Day:Interval=\"SCHEDULE DAY 1\", Blank Schedule Type Limits Name input -- will not be validated.\n   ** Warning ** ProcessScheduleInput: Schedule:Day:Interval=\"SCHEDULE DAY 10\", Blank Schedule Type Limits Name input -- will not be validated.\n   ** Warning ** ProcessScheduleInput: Schedule:Day:Interval=\"SCHEDULE DAY 11\", Blank Schedule Type Limits Name input -- will not be validated.\n   ** Warning ** ProcessScheduleInput: Schedule:Day:Interval=\"SCHEDULE DAY 12\", Blank Schedule Type Limits Name input -- will not be validated.\n   ** Warning ** ProcessScheduleInput: Schedule:Day:Interval=\"SCHEDULE DAY 13\", Blank Schedule Type Limits Name input -- will not be validated.\n   ** Warning ** ProcessScheduleInput: Schedule:Day:Interval=\"SCHEDULE DAY 14\", Blank Schedule Type Limits Name input -- will not be validated.\n   ** Warning ** ProcessScheduleInput: Schedule:Day:Interval=\"SCHEDULE DAY 15\", Blank Schedule Type Limits Name input -- will not be validated.\n   ** Warning ** ProcessScheduleInput: Schedule:Day:Interval=\"SCHEDULE DAY 16\", Blank Schedule Type Limits Name input -- will not be validated.\n   ** Warning ** ProcessScheduleInput: Schedule:Day:Interval=\"SCHEDULE DAY 17\", Blank Schedule Type Limits Name input -- will not be validated.\n   ** Warning ** ProcessScheduleInput: Schedule:Day:Interval=\"SCHEDULE DAY 18\", Blank Schedule Type Limits Name input -- will not be validated.\n   ** Warning ** ProcessScheduleInput: Schedule:Day:Interval=\"SCHEDULE DAY 19\", Blank Schedule Type Limits Name input -- will not be validated.\n   ** Warning ** ProcessScheduleInput: Schedule:Day:Interval=\"SCHEDULE DAY 2\", Blank Schedule Type Limits Name input -- will not be validated.\n   ** Warning ** ProcessScheduleInput: Schedule:Day:Interval=\"SCHEDULE DAY 5\", Blank Schedule Type Limits Name input -- will not be validated.\n   ** Warning ** ProcessScheduleInput: Schedule:Day:Interval=\"SCHEDULE DAY 6\", Blank Schedule Type Limits Name input -- will not be validated.\n   ** Warning ** ProcessScheduleInput: Schedule:Day:Interval=\"SCHEDULE DAY 7\", Blank Schedule Type Limits Name input -- will not be validated.\n   ** Warning ** ProcessScheduleInput: Schedule:Day:Interval=\"SCHEDULE DAY 8\", Blank Schedule Type Limits Name input -- will not be validated.\n   ** Warning ** ProcessScheduleInput: Schedule:Day:Interval=\"SCHEDULE DAY 9\", Blank Schedule Type Limits Name input -- will not be validated.\n   ** Warning ** ProcessScheduleInput: Schedule:Year=\"ECONOMIZER MAX OA FRACTION 100 PCT\", Blank Schedule Type Limits Name input -- will not be validated.\n   ** Warning ** ProcessScheduleInput: Schedule:Year=\"SCHEDULE RULESET 10\", Blank Schedule Type Limits Name input -- will not be validated.\n   ** Warning ** ProcessScheduleInput: Schedule:Year=\"SCHEDULE RULESET 11\", Blank Schedule Type Limits Name input -- will not be validated.\n   ** Warning ** ProcessScheduleInput: Schedule:Year=\"SCHEDULE RULESET 12\", Blank Schedule Type Limits Name input -- will not be validated.\n   ** Warning ** ProcessScheduleInput: Schedule:Year=\"SCHEDULE RULESET 13\", Blank Schedule Type Limits Name input -- will not be validated.\n   ** Warning ** ProcessScheduleInput: Schedule:Year=\"SCHEDULE RULESET 14\", Blank Schedule Type Limits Name input -- will not be validated.\n   ** Warning ** ProcessScheduleInput: Schedule:Year=\"SCHEDULE RULESET 15\", Blank Schedule Type Limits Name input -- will not be validated.\n   ** Warning ** ProcessScheduleInput: Schedule:Year=\"SCHEDULE RULESET 16\", Blank Schedule Type Limits Name input -- will not be validated.\n   ** Warning ** ProcessScheduleInput: Schedule:Year=\"SCHEDULE RULESET 17\", Blank Schedule Type Limits Name input -- will not be validated.\n   ** Warning ** ProcessScheduleInput: Schedule:Year=\"SCHEDULE RULESET 3\", Blank Schedule Type Limits Name input -- will not be validated.\n   ** Warning ** ProcessScheduleInput: Schedule:Year=\"SCHEDULE RULESET 4\", Blank Schedule Type Limits Name input -- will not be validated.\n   ** Warning ** ProcessScheduleInput: Schedule:Year=\"SCHEDULE RULESET 5\", Blank Schedule Type Limits Name input -- will not be validated.\n   ** Warning ** ProcessScheduleInput: Schedule:Year=\"SCHEDULE RULESET 6\", Blank Schedule Type Limits Name input -- will not be validated.\n   ** Warning ** ProcessScheduleInput: Schedule:Year=\"SCHEDULE RULESET 7\", Blank Schedule Type Limits Name input -- will not be validated.\n   ** Warning ** ProcessScheduleInput: Schedule:Year=\"SCHEDULE RULESET 8\", Blank Schedule Type Limits Name input -- will not be validated.\n   ** Warning ** ProcessScheduleInput: Schedule:Year=\"SCHEDULE RULESET 9\", Blank Schedule Type Limits Name input -- will not be validated.\n   ** Warning ** ProcessScheduleInput: Schedule:Constant=\"ALWAYS OFF DISCRETE\", Blank Schedule Type Limits Name input -- will not be validated.\n   ** Warning ** ProcessScheduleInput: Schedule:Constant=\"ALWAYS ON CONTINUOUS\", Blank Schedule Type Limits Name input -- will not be validated.\n   ** Warning ** CheckUsedConstructions: There are 22 nominally unused constructions in input.\n   **   ~~~   ** For explicit details on each unused construction, use Output:Diagnostics,DisplayExtraWarnings;\n   ************* Beginning System Sizing Calculations\n   ************* Beginning Plant Sizing Calculations\n   ** Warning ** GetDXCoils: Coil:Cooling:DX:SingleSpeed=\"COIL COOLING DX SINGLE SPEED 5 17KBTU/HR 14.0SEER\", invalid\n   **   ~~~   ** ...Part Load Fraction Correlation Curve Name = DXCOOL-NECB2011-REF-COOLPLFFPLR 4 has out of range value.\n   **   ~~~   ** ...Curve maximum must be <= 1.0, curve max at PLR = 0.99 is 1.015\n   **   ~~~   ** ...Setting curve maximum to 1.0 and simulation continues.\n   ** Warning ** GetDXCoils: Coil:Cooling:DX:SingleSpeed=\"COIL COOLING DX SINGLE SPEED 4 17KBTU/HR 14.0SEER\", invalid\n   **   ~~~   ** ...Part Load Fraction Correlation Curve Name = DXCOOL-NECB2011-REF-COOLPLFFPLR 3 has out of range value.\n   **   ~~~   ** ...Curve maximum must be <= 1.0, curve max at PLR = 0.99 is 1.015\n   **   ~~~   ** ...Setting curve maximum to 1.0 and simulation continues.\n   ** Warning ** GetDXCoils: Coil:Cooling:DX:SingleSpeed=\"COIL COOLING DX SINGLE SPEED 2 16KBTU/HR 14.0SEER\", invalid\n   **   ~~~   ** ...Part Load Fraction Correlation Curve Name = DXCOOL-NECB2011-REF-COOLPLFFPLR 1 has out of range value.\n   **   ~~~   ** ...Curve maximum must be <= 1.0, curve max at PLR = 0.99 is 1.015\n   **   ~~~   ** ...Setting curve maximum to 1.0 and simulation continues.\n   ** Warning ** GetDXCoils: Coil:Cooling:DX:SingleSpeed=\"COIL COOLING DX SINGLE SPEED 1 16KBTU/HR 14.0SEER\", invalid\n   **   ~~~   ** ...Part Load Fraction Correlation Curve Name = DXCOOL-NECB2011-REF-COOLPLFFPLR has out of range value.\n   **   ~~~   ** ...Curve maximum must be <= 1.0, curve max at PLR = 0.99 is 1.015\n   **   ~~~   ** ...Setting curve maximum to 1.0 and simulation continues.\n   ** Warning ** GetDXCoils: Coil:Cooling:DX:SingleSpeed=\"COIL COOLING DX SINGLE SPEED 3 18KBTU/HR 14.0SEER\", invalid\n   **   ~~~   ** ...Part Load Fraction Correlation Curve Name = DXCOOL-NECB2011-REF-COOLPLFFPLR 2 has out of range value.\n   **   ~~~   ** ...Curve maximum must be <= 1.0, curve max at PLR = 0.99 is 1.015\n   **   ~~~   ** ...Setting curve maximum to 1.0 and simulation continues.\n   ** Warning ** The Standard Ratings is calculated for Coil:Cooling:DX:SingleSpeed = COIL COOLING DX SINGLE SPEED 5 17KBTU/HR 14.0SEER but not at the AHRI test condition due to curve out of bound.\n   **   ~~~   **  Review the Standard Ratings calculations in the Engineering Reference for this coil type. Also, use Output:Diagnostics, DisplayExtraWarnings for further guidance.\n   ** Warning ** The Standard Ratings is calculated for Coil:Cooling:DX:SingleSpeed = COIL COOLING DX SINGLE SPEED 4 17KBTU/HR 14.0SEER but not at the AHRI test condition due to curve out of bound.\n   **   ~~~   **  Review the Standard Ratings calculations in the Engineering Reference for this coil type. Also, use Output:Diagnostics, DisplayExtraWarnings for further guidance.\n   ** Warning ** The Standard Ratings is calculated for Coil:Cooling:DX:SingleSpeed = COIL COOLING DX SINGLE SPEED 2 16KBTU/HR 14.0SEER but not at the AHRI test condition due to curve out of bound.\n   **   ~~~   **  Review the Standard Ratings calculations in the Engineering Reference for this coil type. Also, use Output:Diagnostics, DisplayExtraWarnings for further guidance.\n   ** Warning ** The Standard Ratings is calculated for Coil:Cooling:DX:SingleSpeed = COIL COOLING DX SINGLE SPEED 1 16KBTU/HR 14.0SEER but not at the AHRI test condition due to curve out of bound.\n   **   ~~~   **  Review the Standard Ratings calculations in the Engineering Reference for this coil type. Also, use Output:Diagnostics, DisplayExtraWarnings for further guidance.\n   ** Warning ** The Standard Ratings is calculated for Coil:Cooling:DX:SingleSpeed = COIL COOLING DX SINGLE SPEED 3 18KBTU/HR 14.0SEER but not at the AHRI test condition due to curve out of bound.\n   **   ~~~   **  Review the Standard Ratings calculations in the Engineering Reference for this coil type. Also, use Output:Diagnostics, DisplayExtraWarnings for further guidance.\n   ** Warning ** Check input. Pump nominal power or motor efficiency is set to 0, for pump=SERVICE WATER LOOP PUMP\n   ** Warning ** Output:Meter: invalid Name=\"DISTRICTCOOLING:FACILITY\" - not found.\n   ** Warning ** Output:Meter: invalid Name=\"DISTRICTHEATING:FACILITY\" - not found.\n   ** Warning ** Output:Meter:MeterFileOnly requested for \"Electricity:Facility\" (TimeStep), already on \"Output:Meter\". Will report to both eplusout.eso and eplusout.mtr\n   ************* Testing Individual Branch Integrity\n   ************* All Branches passed integrity testing\n   ************* Testing Individual Supply Air Path Integrity\n   ************* All Supply Air Paths passed integrity testing\n   ************* Testing Individual Return Air Path Integrity\n   ************* All Return Air Paths passed integrity testing\n   ************* No node connection errors were found.\n   ************* Beginning Simulation\n   ** Warning ** CalcDoe2DXCoil: Coil:Cooling:DX:SingleSpeed \"COIL COOLING DX SINGLE SPEED 5 17KBTU/HR 14.0SEER\" - Air-cooled condenser inlet dry-bulb temperature below 0 C. Outdoor dry-bulb temperature = -11.10\n   **   ~~~   **  ... Occurrence info = RUN PERIOD 1, 01/02 21:15 - 21:17\n   **   ~~~   ** ... Operation at low ambient temperatures may require special performance curves.\n   ** Warning ** CalcDoe2DXCoil: Coil:Cooling:DX:SingleSpeed \"COIL COOLING DX SINGLE SPEED 5 17KBTU/HR 14.0SEER\" - Full load outlet air dry-bulb temperature < 2C. This indicates the possibility of coil frost/freeze. Outlet temperature = -2.92 C.\n   **   ~~~   **  ...Occurrence info = RUN PERIOD 1, 01/02 21:15 - 21:17\n   **   ~~~   ** ... Possible reasons for low outlet air dry-bulb temperatures are: This DX coil\n   **   ~~~   **    1) may have a low inlet air dry-bulb temperature. Inlet air temperature = 12.615 C.\n   **   ~~~   **    2) may have a low air flow rate per watt of cooling capacity. Check inputs.\n   **   ~~~   **    3) is used as part of a HX assisted cooling coil which uses a high sensible effectiveness. Check inputs.\n   ** Warning ** CalcDoe2DXCoil: Coil:Cooling:DX:SingleSpeed \"COIL COOLING DX SINGLE SPEED 4 17KBTU/HR 14.0SEER\" - Air-cooled condenser inlet dry-bulb temperature below 0 C. Outdoor dry-bulb temperature = -11.10\n   **   ~~~   **  ... Occurrence info = RUN PERIOD 1, 01/02 21:15 - 21:17\n   **   ~~~   ** ... Operation at low ambient temperatures may require special performance curves.\n   ** Warning ** CalcDoe2DXCoil: Coil:Cooling:DX:SingleSpeed \"COIL COOLING DX SINGLE SPEED 4 17KBTU/HR 14.0SEER\" - Full load outlet air dry-bulb temperature < 2C. This indicates the possibility of coil frost/freeze. Outlet temperature = -0.75 C.\n   **   ~~~   **  ...Occurrence info = RUN PERIOD 1, 01/02 21:15 - 21:17\n   **   ~~~   ** ... Possible reasons for low outlet air dry-bulb temperatures are: This DX coil\n   **   ~~~   **    1) may have a low inlet air dry-bulb temperature. Inlet air temperature = 14.120 C.\n   **   ~~~   **    2) may have a low air flow rate per watt of cooling capacity. Check inputs.\n   **   ~~~   **    3) is used as part of a HX assisted cooling coil which uses a high sensible effectiveness. Check inputs.\n   ** Warning ** CalcDoe2DXCoil: Coil:Cooling:DX:SingleSpeed \"COIL COOLING DX SINGLE SPEED 2 16KBTU/HR 14.0SEER\" - Air-cooled condenser inlet dry-bulb temperature below 0 C. Outdoor dry-bulb temperature = -11.10\n   **   ~~~   **  ... Occurrence info = RUN PERIOD 1, 01/02 21:15 - 21:17\n   **   ~~~   ** ... Operation at low ambient temperatures may require special performance curves.\n   ** Warning ** CalcDoe2DXCoil: Coil:Cooling:DX:SingleSpeed \"COIL COOLING DX SINGLE SPEED 1 16KBTU/HR 14.0SEER\" - Air-cooled condenser inlet dry-bulb temperature below 0 C. Outdoor dry-bulb temperature = -11.10\n   **   ~~~   **  ... Occurrence info = RUN PERIOD 1, 01/02 21:15 - 21:17\n   **   ~~~   ** ... Operation at low ambient temperatures may require special performance curves.\n   ** Warning ** CalcDoe2DXCoil: Coil:Cooling:DX:SingleSpeed \"COIL COOLING DX SINGLE SPEED 1 16KBTU/HR 14.0SEER\" - Full load outlet air dry-bulb temperature < 2C. This indicates the possibility of coil frost/freeze. Outlet temperature = -1.49 C.\n   **   ~~~   **  ...Occurrence info = RUN PERIOD 1, 01/02 21:15 - 21:17\n   **   ~~~   ** ... Possible reasons for low outlet air dry-bulb temperatures are: This DX coil\n   **   ~~~   **    1) may have a low inlet air dry-bulb temperature. Inlet air temperature = 13.519 C.\n   **   ~~~   **    2) may have a low air flow rate per watt of cooling capacity. Check inputs.\n   **   ~~~   **    3) is used as part of a HX assisted cooling coil which uses a high sensible effectiveness. Check inputs.\n   ** Warning ** CalcDoe2DXCoil: Coil:Cooling:DX:SingleSpeed \"COIL COOLING DX SINGLE SPEED 3 18KBTU/HR 14.0SEER\" - Air-cooled condenser inlet dry-bulb temperature below 0 C. Outdoor dry-bulb temperature = -11.10\n   **   ~~~   **  ... Occurrence info = RUN PERIOD 1, 01/02 21:15 - 21:17\n   **   ~~~   ** ... Operation at low ambient temperatures may require special performance curves.\n   ** Warning ** CalcDoe2DXCoil: Coil:Cooling:DX:SingleSpeed \"COIL COOLING DX SINGLE SPEED 3 18KBTU/HR 14.0SEER\" - Full load outlet air dry-bulb temperature < 2C. This indicates the possibility of coil frost/freeze. Outlet temperature = 1.69 C.\n   **   ~~~   **  ...Occurrence info = RUN PERIOD 1, 01/10 21:30 - 21:35\n   **   ~~~   ** ... Possible reasons for low outlet air dry-bulb temperatures are: This DX coil\n   **   ~~~   **    1) may have a low inlet air dry-bulb temperature. Inlet air temperature = 15.004 C.\n   **   ~~~   **    2) may have a low air flow rate per watt of cooling capacity. Check inputs.\n   **   ~~~   **    3) is used as part of a HX assisted cooling coil which uses a high sensible effectiveness. Check inputs.\n   ** Warning ** CalcDoe2DXCoil: Coil:Cooling:DX:SingleSpeed \"COIL COOLING DX SINGLE SPEED 2 16KBTU/HR 14.0SEER\" - Full load outlet air dry-bulb temperature < 2C. This indicates the possibility of coil frost/freeze. Outlet temperature = 1.64 C.\n   **   ~~~   **  ...Occurrence info = RUN PERIOD 1, 01/27 21:30 - 21:38\n   **   ~~~   ** ... Possible reasons for low outlet air dry-bulb temperatures are: This DX coil\n   **   ~~~   **    1) may have a low inlet air dry-bulb temperature. Inlet air temperature = 14.384 C.\n   **   ~~~   **    2) may have a low air flow rate per watt of cooling capacity. Check inputs.\n   **   ~~~   **    3) is used as part of a HX assisted cooling coil which uses a high sensible effectiveness. Check inputs.\n   ************* Simulation Error Summary *************\n   ************* There are 9 unused schedules in input.\n   ************* There are 9 unused week schedules in input.\n   ************* There are 12 unused day schedules in input.\n   ************* Use Output:Diagnostics,DisplayUnusedSchedules; to see them.\n   *************\n   ************* ===== Recurring Error Summary =====\n   ************* The following recurring error messages occurred.\n   *************\n   *************  ** Warning ** CalcDoe2DXCoil: Coil:Cooling:DX:SingleSpeed=\"COIL COOLING DX SINGLE SPEED 5 17KBTU/HR 14.0SEER\" - Low condenser dry-bulb temperature error continues...\n   *************  **   ~~~   **   This error occurred 316 total times;\n   *************  **   ~~~   **   during Warmup 0 times;\n   *************  **   ~~~   **   during Sizing 0 times.\n   *************  **   ~~~   **   Max=-2.500000E-002 [C]  Min=-14.7 [C]\n   *************\n   *************  ** Warning ** CalcDoe2DXCoil: Coil:Cooling:DX:SingleSpeed=\"COIL COOLING DX SINGLE SPEED 5 17KBTU/HR 14.0SEER\" - Full load outlet temperature indicates a possibility of frost/freeze error continues. Outlet air temperature statistics follow:\n   *************  **   ~~~   **   This error occurred 443 total times;\n   *************  **   ~~~   **   during Warmup 0 times;\n   *************  **   ~~~   **   during Sizing 0 times.\n   *************  **   ~~~   **   Max=1.940613  Min=-3.742992\n   *************\n   *************  ** Warning ** CalcDoe2DXCoil: Coil:Cooling:DX:SingleSpeed=\"COIL COOLING DX SINGLE SPEED 4 17KBTU/HR 14.0SEER\" - Low condenser dry-bulb temperature error continues...\n   *************  **   ~~~   **   This error occurred 901 total times;\n   *************  **   ~~~   **   during Warmup 0 times;\n   *************  **   ~~~   **   during Sizing 0 times.\n   *************  **   ~~~   **   Max=-2.775558E-017 [C]  Min=-23.175 [C]\n   *************\n   *************  ** Warning ** CalcDoe2DXCoil: Coil:Cooling:DX:SingleSpeed=\"COIL COOLING DX SINGLE SPEED 4 17KBTU/HR 14.0SEER\" - Full load outlet temperature indicates a possibility of frost/freeze error continues. Outlet air temperature statistics follow:\n   *************  **   ~~~   **   This error occurred 567 total times;\n   *************  **   ~~~   **   during Warmup 0 times;\n   *************  **   ~~~   **   during Sizing 0 times.\n   *************  **   ~~~   **   Max=1.98879  Min=-2.823456\n   *************\n   *************  ** Warning ** CalcDoe2DXCoil: Coil:Cooling:DX:SingleSpeed=\"COIL COOLING DX SINGLE SPEED 2 16KBTU/HR 14.0SEER\" - Low condenser dry-bulb temperature error continues...\n   *************  **   ~~~   **   This error occurred 567 total times;\n   *************  **   ~~~   **   during Warmup 0 times;\n   *************  **   ~~~   **   during Sizing 0 times.\n   *************  **   ~~~   **   Max=-2.775558E-017 [C]  Min=-23.175 [C]\n   *************\n   *************  ** Warning ** CalcDoe2DXCoil: Coil:Cooling:DX:SingleSpeed=\"COIL COOLING DX SINGLE SPEED 1 16KBTU/HR 14.0SEER\" - Low condenser dry-bulb temperature error continues...\n   *************  **   ~~~   **   This error occurred 323 total times;\n   *************  **   ~~~   **   during Warmup 0 times;\n   *************  **   ~~~   **   during Sizing 0 times.\n   *************  **   ~~~   **   Max=-2.775558E-017 [C]  Min=-21.9 [C]\n   *************\n   *************  ** Warning ** CalcDoe2DXCoil: Coil:Cooling:DX:SingleSpeed=\"COIL COOLING DX SINGLE SPEED 1 16KBTU/HR 14.0SEER\" - Full load outlet temperature indicates a possibility of frost/freeze error continues. Outlet air temperature statistics follow:\n   *************  **   ~~~   **   This error occurred 370 total times;\n   *************  **   ~~~   **   during Warmup 0 times;\n   *************  **   ~~~   **   during Sizing 0 times.\n   *************  **   ~~~   **   Max=1.998407  Min=-3.233512\n   *************\n   *************  ** Warning ** CalcDoe2DXCoil: Coil:Cooling:DX:SingleSpeed=\"COIL COOLING DX SINGLE SPEED 3 18KBTU/HR 14.0SEER\" - Low condenser dry-bulb temperature error continues...\n   *************  **   ~~~   **   This error occurred 608 total times;\n   *************  **   ~~~   **   during Warmup 0 times;\n   *************  **   ~~~   **   during Sizing 0 times.\n   *************  **   ~~~   **   Max=-2.775558E-017 [C]  Min=-23.175 [C]\n   *************\n   *************  ** Warning ** CalcDoe2DXCoil: Coil:Cooling:DX:SingleSpeed=\"COIL COOLING DX SINGLE SPEED 3 18KBTU/HR 14.0SEER\" - Full load outlet temperature indicates a possibility of frost/freeze error continues. Outlet air temperature statistics follow:\n   *************  **   ~~~   **   This error occurred 5 total times;\n   *************  **   ~~~   **   during Warmup 0 times;\n   *************  **   ~~~   **   during Sizing 0 times.\n   *************  **   ~~~   **   Max=1.885103  Min=1.665411\n   *************\n   *************  ** Warning ** CalcDoe2DXCoil: Coil:Cooling:DX:SingleSpeed=\"COIL COOLING DX SINGLE SPEED 2 16KBTU/HR 14.0SEER\" - Full load outlet temperature indicates a possibility of frost/freeze error continues. Outlet air temperature statistics follow:\n   *************  **   ~~~   **   This error occurred 1 total times;\n   *************  **   ~~~   **   during Warmup 0 times;\n   *************  **   ~~~   **   during Sizing 0 times.\n   *************  **   ~~~   **   Max=1.644873  Min=1.644873\n   *************\n   *************\n   ************* ===== Final Error Summary =====\n   ************* The following error categories occurred.  Consider correcting or noting.\n   ************* Nominally Unused Constructions\n   ************* ..The nominally unused constructions warning is provided to alert you to potential conditions that can cause\n   ************* ..extra time during simulation. Each construction is calculated by the algorithm indicated in the HeatBalanceAlgorithm\n   ************* ..object. You may remove the constructions indicated (when you use the DisplayExtraWarnings option).\n   *************\n   ************* EnergyPlus Warmup Error Summary. During Warmup: 0 Warning; 0 Severe Errors.\n   ************* EnergyPlus Sizing Error Summary. During Sizing: 37 Warning; 0 Severe Errors.\n   ************* EnergyPlus Completed Successfully-- 4153 Warning; 0 Severe Errors; Elapsed Time=00hr 00min 37.30sec\n",
   "file_format_version" : "0.0.1",
   "file_paths" : [ "../weather", "../seeds", "../seed" ],
   "hash" : "8DCAA3EC",
   "measure_paths" : [ "../measures" ],
   "name" : "LHS Autogenerated 876",
   "osa_id" : "4fef0e0f-5396-4c55-a6e1-2cd6803db3ab",
   "osd_id" : "ca7f5f8a-2751-47b6-8969-15b85cc566df",
   "run_directory" : "./run",
   "seed_file" : "seed.osm",
   "started_at" : "20170710T191958Z",
   "steps" : [
      {
         "arguments" : {
            "__SKIP__" : false,
            "building_type" : "SmallOffice",
            "climate_zone" : "NECB HDD Method",
            "epw_file" : "CAN_ON_Trenton.716210_CWEC.epw",
            "template" : "NECB 2011"
         },
         "measure_dir_name" : "create_prototype_building",
         "name" : "create_prototype_building",
         "result" : {
            "completed_at" : "20170710T192049Z",
            "measure_class_name" : "CreatePrototypeBuilding",
            "measure_display_name" : "Create Prototype Building",
            "measure_name" : "create_prototype_building",
            "measure_taxonomy" : "Whole Building.Space Types",
            "measure_type" : "ModelMeasure",
            "measure_uid" : "ae90fsd7-a651-467a-bc8d-29d310b0f937",
            "measure_version_id" : "c6ec5c18-5595-459f-a082-09a19c8c869c",
            "measure_version_modified" : "20170519T182315Z",
            "measure_xml_checksum" : "057E8D9D",
            "started_at" : "20170710T192000Z",
            "stderr" : "",
            "stdout" : "[OpenStudio.Measure] <0> OSArgumentVector is deprecated, use OpenStudio::Measure::OSArgumentVector instead.\n[openstudio.EpwFile] <0> Successive data points (1969-Jan-31 to 1988-Feb-01, ending on line 753) are greater than 1 day apart in EPW file '/usr/local/bundle/bundler/gems/openstudio-standards-f448df66933d/openstudio-standards/data/weather/CAN_ON_Trenton.716210_CWEC.epw'. Data will be treated as typical (TMY)\n[openstudio.setFileExtension] <0> Path p, '/usr/local/bundle/bundler/gems/openstudio-standards-f448df66933d/openstudio-standards/data/weather/CAN_ON_Trenton.716210_CWEC.ddy', has an unexpected file extension. Was expecting 'idf'.\n[openstudio.model.YearDescription] <1> 'UseWeatherFile' is not yet a supported option for YearDescription\n[openstudio.model.YearDescription] <1> 'UseWeatherFile' is not yet a supported option for YearDescription\n[openstudio.setFileExtension] <0> Path p, '/usr/local/bundle/bundler/gems/openstudio-standards-f448df66933d/openstudio-standards/data/weather/CAN_ON_Trenton.716210_CWEC.ddy', has an unexpected file extension. Was expecting 'idf'.\n[openstudio.model.YearDescription] <1> 'UseWeatherFile' is not yet a supported option for YearDescription\n[openstudio.model.YearDescription] <1> 'UseWeatherFile' is not yet a supported option for YearDescription\n[openstudio.EpwFile] <0> Successive data points (1969-Jan-31 to 1988-Feb-01, ending on line 753) are greater than 1 day apart in EPW file '/usr/local/bundle/bundler/gems/openstudio-standards-f448df66933d/openstudio-standards/data/weather/CAN_ON_Trenton.716210_CWEC.epw'. Data will be treated as typical (TMY)\n[openstudio.weather.Model] <0> Could not find ground temperatures; will use generic temperatures, which will skew results.\n[openstudio.setFileExtension] <0> Path p, '/usr/local/bundle/bundler/gems/openstudio-standards-f448df66933d/openstudio-standards/data/weather/CAN_ON_Trenton.716210_CWEC.ddy', has an unexpected file extension. Was expecting 'idf'.\n[openstudio.model.YearDescription] <1> 'UseWeatherFile' is not yet a supported option for YearDescription\n[openstudio.model.YearDescription] <1> 'UseWeatherFile' is not yet a supported option for YearDescription\n[openstudio.EpwFile] <0> Successive data points (1969-Jan-31 to 1988-Feb-01, ending on line 753) are greater than 1 day apart in EPW file '/usr/local/bundle/bundler/gems/openstudio-standards-f448df66933d/openstudio-standards/data/weather/CAN_ON_Trenton.716210_CWEC.epw'. Data will be treated as typical (TMY)\n[openstudio.setFileExtension] <0> Path p, '/usr/local/bundle/bundler/gems/openstudio-standards-f448df66933d/openstudio-standards/data/weather/CAN_ON_Trenton.716210_CWEC.ddy', has an unexpected file extension. Was expecting 'idf'.\n[openstudio.model.YearDescription] <1> 'UseWeatherFile' is not yet a supported option for YearDescription\n[openstudio.model.YearDescription] <1> 'UseWeatherFile' is not yet a supported option for YearDescription\n[openstudio.setFileExtension] <0> Path p, '/usr/local/bundle/bundler/gems/openstudio-standards-f448df66933d/openstudio-standards/data/weather/CAN_ON_Trenton.716210_CWEC.ddy', has an unexpected file extension. Was expecting 'idf'.\n[openstudio.model.YearDescription] <1> 'UseWeatherFile' is not yet a supported option for YearDescription\n[openstudio.model.YearDescription] <1> 'UseWeatherFile' is not yet a supported option for YearDescription\n[openstudio.EpwFile] <0> Successive data points (1969-Jan-31 to 1988-Feb-01, ending on line 753) are greater than 1 day apart in EPW file '/usr/local/bundle/bundler/gems/openstudio-standards-f448df66933d/openstudio-standards/data/weather/CAN_ON_Trenton.716210_CWEC.epw'. Data will be treated as typical (TMY)\n[openstudio.setFileExtension] <0> Path p, '/usr/local/bundle/bundler/gems/openstudio-standards-f448df66933d/openstudio-standards/data/weather/CAN_ON_Trenton.716210_CWEC.ddy', has an unexpected file extension. Was expecting 'idf'.\n[openstudio.model.YearDescription] <1> 'UseWeatherFile' is not yet a supported option for YearDescription\n[openstudio.model.YearDescription] <1> 'UseWeatherFile' is not yet a supported option for YearDescription\n[openstudio.setFileExtension] <0> Path p, '/usr/local/bundle/bundler/gems/openstudio-standards-f448df66933d/openstudio-standards/data/weather/CAN_ON_Trenton.716210_CWEC.ddy', has an unexpected file extension. Was expecting 'idf'.\n[openstudio.model.YearDescription] <1> 'UseWeatherFile' is not yet a supported option for YearDescription\n[openstudio.model.YearDescription] <1> 'UseWeatherFile' is not yet a supported option for YearDescription\n[utilities.idf.WorkspaceObject] <0> Object of type 'Schedule:Constant' and named 'Always Off Discrete', points to an object named OnOff 1 from field 1, but that object cannot be located.\n[utilities.idf.WorkspaceObject] <0> Object of type 'Schedule:Constant' and named 'Always On Continuous', points to an object named Fractional 1 from field 1, but that object cannot be located.\n[utilities.idf.WorkspaceObject] <0> Object of type 'Schedule:Constant' and named 'Always Off Discrete', points to an object named OnOff 1 from field 1, but that object cannot be located.\n[utilities.idf.WorkspaceObject] <0> Object of type 'Schedule:Constant' and named 'Always On Continuous', points to an object named Fractional 1 from field 1, but that object cannot be located.\n[openstudio.standards.Fan] <0> For Fan Constant Volume 1, there is no greater nominal HP.  Use the efficiency of the largest motor category.\n[openstudio.standards.Fan] <0> For Fan Constant Volume 2, there is no greater nominal HP.  Use the efficiency of the largest motor category.\n[openstudio.standards.Fan] <0> For Fan Constant Volume 3, there is no greater nominal HP.  Use the efficiency of the largest motor category.\n[openstudio.standards.Fan] <0> For Fan Constant Volume 4, there is no greater nominal HP.  Use the efficiency of the largest motor category.\n[openstudio.standards.Fan] <0> For Fan Constant Volume 5, there is no greater nominal HP.  Use the efficiency of the largest motor category.\n[openstudio.EpwFile] <0> Successive data points (1969-Jan-31 to 1988-Feb-01, ending on line 753) are greater than 1 day apart in EPW file '/usr/local/bundle/bundler/gems/openstudio-standards-f448df66933d/openstudio-standards/data/weather/CAN_ON_Trenton.716210_CWEC.epw'. Data will be treated as typical (TMY)\n[openstudio.setFileExtension] <0> Path p, '/usr/local/bundle/bundler/gems/openstudio-standards-f448df66933d/openstudio-standards/data/weather/CAN_ON_Trenton.716210_CWEC.ddy', has an unexpected file extension. Was expecting 'idf'.\n[openstudio.model.YearDescription] <1> 'UseWeatherFile' is not yet a supported option for YearDescription\n[openstudio.model.YearDescription] <1> 'UseWeatherFile' is not yet a supported option for YearDescription\n[openstudio.setFileExtension] <0> Path p, '/usr/local/bundle/bundler/gems/openstudio-standards-f448df66933d/openstudio-standards/data/weather/CAN_ON_Trenton.716210_CWEC.ddy', has an unexpected file extension. Was expecting 'idf'.\n[openstudio.model.YearDescription] <1> 'UseWeatherFile' is not yet a supported option for YearDescription\n[openstudio.model.YearDescription] <1> 'UseWeatherFile' is not yet a supported option for YearDescription\n[openstudio.EpwFile] <0> Successive data points (1969-Jan-31 to 1988-Feb-01, ending on line 753) are greater than 1 day apart in EPW file '/usr/local/bundle/bundler/gems/openstudio-standards-f448df66933d/openstudio-standards/data/weather/CAN_ON_Trenton.716210_CWEC.epw'. Data will be treated as typical (TMY)\n[openstudio.setFileExtension] <0> Path p, '/usr/local/bundle/bundler/gems/openstudio-standards-f448df66933d/openstudio-standards/data/weather/CAN_ON_Trenton.716210_CWEC.ddy', has an unexpected file extension. Was expecting 'idf'.\n[openstudio.model.YearDescription] <1> 'UseWeatherFile' is not yet a supported option for YearDescription\n[openstudio.model.YearDescription] <1> 'UseWeatherFile' is not yet a supported option for YearDescription\n[openstudio.setFileExtension] <0> Path p, '/usr/local/bundle/bundler/gems/openstudio-standards-f448df66933d/openstudio-standards/data/weather/CAN_ON_Trenton.716210_CWEC.ddy', has an unexpected file extension. Was expecting 'idf'.\n[openstudio.model.YearDescription] <1> 'UseWeatherFile' is not yet a supported option for YearDescription\n[openstudio.model.YearDescription] <1> 'UseWeatherFile' is not yet a supported option for YearDescription\n[openstudio.EpwFile] <0> Successive data points (1969-Jan-31 to 1988-Feb-01, ending on line 753) are greater than 1 day apart in EPW file '/usr/local/bundle/bundler/gems/openstudio-standards-f448df66933d/openstudio-standards/data/weather/CAN_ON_Trenton.716210_CWEC.epw'. Data will be treated as typical (TMY)\n[openstudio.setFileExtension] <0> Path p, '/usr/local/bundle/bundler/gems/openstudio-standards-f448df66933d/openstudio-standards/data/weather/CAN_ON_Trenton.716210_CWEC.ddy', has an unexpected file extension. Was expecting 'idf'.\n[openstudio.model.YearDescription] <1> 'UseWeatherFile' is not yet a supported option for YearDescription\n[openstudio.model.YearDescription] <1> 'UseWeatherFile' is not yet a supported option for YearDescription\n[openstudio.setFileExtension] <0> Path p, '/usr/local/bundle/bundler/gems/openstudio-standards-f448df66933d/openstudio-standards/data/weather/CAN_ON_Trenton.716210_CWEC.ddy', has an unexpected file extension. Was expecting 'idf'.\n[openstudio.model.YearDescription] <1> 'UseWeatherFile' is not yet a supported option for YearDescription\n[openstudio.model.YearDescription] <1> 'UseWeatherFile' is not yet a supported option for YearDescription\n[openstudio.EpwFile] <0> Successive data points (1969-Jan-31 to 1988-Feb-01, ending on line 753) are greater than 1 day apart in EPW file '/usr/local/bundle/bundler/gems/openstudio-standards-f448df66933d/openstudio-standards/data/weather/CAN_ON_Trenton.716210_CWEC.epw'. Data will be treated as typical (TMY)\n[openstudio.setFileExtension] <0> Path p, '/usr/local/bundle/bundler/gems/openstudio-standards-f448df66933d/openstudio-standards/data/weather/CAN_ON_Trenton.716210_CWEC.ddy', has an unexpected file extension. Was expecting 'idf'.\n[openstudio.model.YearDescription] <1> 'UseWeatherFile' is not yet a supported option for YearDescription\n[openstudio.model.YearDescription] <1> 'UseWeatherFile' is not yet a supported option for YearDescription\n[openstudio.setFileExtension] <0> Path p, '/usr/local/bundle/bundler/gems/openstudio-standards-f448df66933d/openstudio-standards/data/weather/CAN_ON_Trenton.716210_CWEC.ddy', has an unexpected file extension. Was expecting 'idf'.\n[openstudio.model.YearDescription] <1> 'UseWeatherFile' is not yet a supported option for YearDescription\n[openstudio.model.YearDescription] <1> 'UseWeatherFile' is not yet a supported option for YearDescription\n[openstudio.EpwFile] <0> Successive data points (1969-Jan-31 to 1988-Feb-01, ending on line 753) are greater than 1 day apart in EPW file '/usr/local/bundle/bundler/gems/openstudio-standards-f448df66933d/openstudio-standards/data/weather/CAN_ON_Trenton.716210_CWEC.epw'. Data will be treated as typical (TMY)\n[openstudio.setFileExtension] <0> Path p, '/usr/local/bundle/bundler/gems/openstudio-standards-f448df66933d/openstudio-standards/data/weather/CAN_ON_Trenton.716210_CWEC.ddy', has an unexpected file extension. Was expecting 'idf'.\n[openstudio.model.YearDescription] <1> 'UseWeatherFile' is not yet a supported option for YearDescription\n[openstudio.model.YearDescription] <1> 'UseWeatherFile' is not yet a supported option for YearDescription\n[openstudio.setFileExtension] <0> Path p, '/usr/local/bundle/bundler/gems/openstudio-standards-f448df66933d/openstudio-standards/data/weather/CAN_ON_Trenton.716210_CWEC.ddy', has an unexpected file extension. Was expecting 'idf'.\n[openstudio.model.YearDescription] <1> 'UseWeatherFile' is not yet a supported option for YearDescription\n[openstudio.model.YearDescription] <1> 'UseWeatherFile' is not yet a supported option for YearDescription\n[openstudio.standards.Fan] <0> For Fan Constant Volume 1, there is no greater nominal HP.  Use the efficiency of the largest motor category.\n[openstudio.standards.Fan] <0> For Fan Constant Volume 2, there is no greater nominal HP.  Use the efficiency of the largest motor category.\n[openstudio.standards.Fan] <0> For Fan Constant Volume 3, there is no greater nominal HP.  Use the efficiency of the largest motor category.\n[openstudio.standards.Fan] <0> For Fan Constant Volume 4, there is no greater nominal HP.  Use the efficiency of the largest motor category.\n[openstudio.standards.Fan] <0> For Fan Constant Volume 5, there is no greater nominal HP.  Use the efficiency of the largest motor category.\n",
            "step_errors" : [],
            "step_files" : [],
            "step_info" : [
               "Started adding geometry",
               "Finished adding geometry",
               "Started adding weather file for climate zone: NECB HDD Method.",
               "Template =",
               "Setting Attic to Space Function.- undefined -",
               "Setting Core_ZN to Space Function.Office - enclosed",
               "Setting Perimeter_ZN_1 to Space Function.Office - enclosed",
               "Setting Perimeter_ZN_2 to Space Function.Office - enclosed",
               "Setting Perimeter_ZN_3 to Space Function.Office - enclosed",
               "Setting Perimeter_ZN_4 to Space Function.Office - enclosed",
               "Started applying space types (loads)",
               "Space Function - undefined - had no ventilation specification, one has been created.",
               "Space Function - undefined - had no infiltration objects, one has been created.",
               "Space Function - undefined - set infiltration to 0.0 per ft^2 exterior surface area.",
               "Space Function - undefined - set infiltration schedule to Always On.",
               "Space Function Office - enclosed had no people, one has been created.",
               "Space Function Office - enclosed set occupancy to 4.65 people/1000 ft^2.",
               "Space Function Office - enclosed had no lights, one has been created.",
               "Space Function Office - enclosed set LPD to 1.105536975 W/ft^2.",
               "Space Function Office - enclosed had no electric equipment, one has been created.",
               "Space Function Office - enclosed set electric EPD to 0.696767001 W/ft^2.",
               "Space Function Office - enclosed had no ventilation specification, one has been created.",
               "Space Function Office - enclosed set ventilation per area to 0.085 cfm/ft^2.",
               "Space Function Office - enclosed had no infiltration objects, one has been created.",
               "Space Function Office - enclosed set infiltration to 0.0 per ft^2 exterior surface area.",
               "Space Function Office - enclosed set occupancy schedule to NECB-A-Occupancy.",
               "Space Function Office - enclosed set occupant activity schedule to NECB-Activity.",
               "Space Function Office - enclosed set lighting schedule to NECB-A-Lighting.",
               "Space Function Office - enclosed set electric equipment schedule to NECB-A-Electric-Equipment.",
               "Space Function Office - enclosed set infiltration schedule to Always On.",
               "Space Function Office - enclosed set heating setpoint schedule to NECB-A-Thermostat Setpoint-Heating.",
               "Space Function Office - enclosed set cooling setpoint schedule to NECB-A-Thermostat Setpoint-Cooling.",
               "Finished applying space types (loads)",
               "For NECB 2011, no exterior wall area was found, no infiltration will be added.",
               "Started applying constructions",
               "Adding construction set: NECB 2011-NECB HDD Method-Office--is_residentialNo",
               "Adding construction Typical Insulated Exterior Mass Floor R-15.63.",
               "Adding construction Typical Insulated Exterior Mass Wall R-12.5.",
               "Adding construction Typical Insulated Metal Building Roof R-20.41.",
               "Adding construction Typical Interior Floor.",
               "Adding construction Typical Interior Wall.",
               "Adding construction Typical Interior Ceiling.",
               "Adding construction Typical Insulated Carpeted 6in Slab Floor.",
               "Adding construction U 0.55 SHGC 0.31 Dbl Ref-D Tint 6mm/6mm Air.",
               "Adding construction Typical Insulated Metal Door R-1.43.",
               "Adding construction U 0.35 SHGC 0.35 Dbl LoE (e2-.1) Tint 6mm/13mm Air.",
               "Adding construction Typical Overhead Door R-2.0.",
               "Adding construction U 0.48 SHGC 0.40 Dbl Ref-D Clr 6mm/13mm.",
               "Adding construction Typical Interior Window.",
               "Adding construction Typical Interior Door.",
               "Adding construction Typical Interior Partition.",
               "Finished applying constructions",
               "WWR NonRes = 0%; window = 0 ft2, wall = 0 ft2.",
               "WWR Res = 0%; window = 0 ft2, wall = 0 ft2.",
               "WWR Semiheated = 0%; window = 0 ft2, wall = 0 ft2.",
               "The skylight to roof ratios (SRRs) are: NonRes: 0%, Res: 0%.",
               "Started creating thermal zones",
               "Finished creating thermal zones",
               "Running simulation /mnt/openstudio/analysis_4fef0e0f-5396-4c55-a6e1-2cd6803db3ab/data_point_ca7f5f8a-2751-47b6-8969-15b85cc566df/run/000_create_prototype_building/output/SmallOffice-NECB 2011-NECB HDD Method-CAN_ON_Trenton.716210_CWEC.epw/SR0.",
               "Finished run.",
               "Started Adding HVAC",
               "Finished adding HVAC",
               "Started Adding Service Water Heating",
               "Adding service water loop.",
               "Adding water heater.",
               "Template =",
               "Finished adding Service Water Heating",
               "Set sizing factors to 1.3 for heating and 1.3 for cooling.",
               "Running simulation /mnt/openstudio/analysis_4fef0e0f-5396-4c55-a6e1-2cd6803db3ab/data_point_ca7f5f8a-2751-47b6-8969-15b85cc566df/run/000_create_prototype_building/output/SmallOffice-NECB 2011-NECB HDD Method-CAN_ON_Trenton.716210_CWEC.epw/SR1.",
               "Finished run.",
               "Started applying multizone vav OA sizing.",
               "Finished applying multizone vav OA sizing.",
               "Started applying prototype HVAC assumptions.",
               "For Fan Constant Volume 1: allowed_hp = 1.01HP; motor eff = 61.5%; total fan eff = 40% based on 537 cfm.",
               "For Fan Constant Volume 2: allowed_hp = 1.01HP; motor eff = 61.5%; total fan eff = 40% based on 591 cfm.",
               "For Fan Constant Volume 3: allowed_hp = 1.01HP; motor eff = 61.5%; total fan eff = 40% based on 666 cfm.",
               "For Fan Constant Volume 4: allowed_hp = 1.01HP; motor eff = 61.5%; total fan eff = 40% based on 572 cfm.",
               "For Fan Constant Volume 5: allowed_hp = 1.01HP; motor eff = 61.5%; total fan eff = 40% based on 572 cfm.",
               "Sp-Perimeter_ZN_1 Sys-3 Flr-1 Sch-A HPlcmt-south ZN NECB System 3 PSZ does not require an economizer because the total cooling capacity of 16661 Btu/hr is less than the minimum capacity of 68243 Btu/hr.",
               "Sp-Perimeter_ZN_2 Sys-3 Flr-1 Sch-A HPlcmt-east ZN NECB System 3 PSZ does not require an economizer because the total cooling capacity of 15756 Btu/hr is less than the minimum capacity of 68243 Btu/hr.",
               "Sp-Perimeter_ZN_3 Sys-3 Flr-1 Sch-A HPlcmt-north ZN NECB System 3 PSZ does not require an economizer because the total cooling capacity of 15773 Btu/hr is less than the minimum capacity of 68243 Btu/hr.",
               "Sp-Core_ZN Sys-3 Flr-1 Sch-A HPlcmt-core ZN NECB System 3 PSZ does not require an economizer because the total cooling capacity of 17410 Btu/hr is less than the minimum capacity of 68243 Btu/hr.",
               "Sp-Perimeter_ZN_4 Sys-3 Flr-1 Sch-A HPlcmt-west ZN NECB System 3 PSZ does not require an economizer because the total cooling capacity of 17749 Btu/hr is less than the minimum capacity of 68243 Btu/hr.",
               "Finished applying prototype HVAC assumptions.",
               "Started applying HVAC efficiency standards.",
               "For Sp-Core_ZN Sys-3 Flr-1 Sch-A HPlcmt-core ZN NECB System 3 PSZ, ERV not required based on 0% OA flow, design supply air flow of 572cfm, and climate zone NECB HDD Method.",
               "For Sp-Core_ZN Sys-3 Flr-1 Sch-A HPlcmt-core ZN NECB System 3 PSZ, ERV not required based on exhaust heat content.",
               "For NECB 2011 NECB HDD Method:  Sp-Core_ZN Sys-3 Flr-1 Sch-A HPlcmt-core ZN NECB System 3 PSZ: DCV is not required for any system.",
               "For Sp-Core_ZN Sys-3 Flr-1 Sch-A HPlcmt-core ZN NECB System 3 PSZ: Unoccupied fan shutoff not required because system fan HP of 0.58 HP is less than the minimum threshold of 0.75 HP.",
               "For Sp-Core_ZN Sys-3 Flr-1 Sch-A HPlcmt-core ZN NECB System 3 PSZ: Setting motorized OA damper schedule to Always On Discrete.",
               "For Sp-Perimeter_ZN_1 Sys-3 Flr-1 Sch-A HPlcmt-south ZN NECB System 3 PSZ, ERV not required based on 0% OA flow, design supply air flow of 572cfm, and climate zone NECB HDD Method.",
               "For Sp-Perimeter_ZN_1 Sys-3 Flr-1 Sch-A HPlcmt-south ZN NECB System 3 PSZ, ERV not required based on exhaust heat content.",
               "For NECB 2011 NECB HDD Method:  Sp-Perimeter_ZN_1 Sys-3 Flr-1 Sch-A HPlcmt-south ZN NECB System 3 PSZ: DCV is not required for any system.",
               "For Sp-Perimeter_ZN_1 Sys-3 Flr-1 Sch-A HPlcmt-south ZN NECB System 3 PSZ: Unoccupied fan shutoff not required because system fan HP of 0.58 HP is less than the minimum threshold of 0.75 HP.",
               "For Sp-Perimeter_ZN_1 Sys-3 Flr-1 Sch-A HPlcmt-south ZN NECB System 3 PSZ: Setting motorized OA damper schedule to Always On Discrete.",
               "For Sp-Perimeter_ZN_2 Sys-3 Flr-1 Sch-A HPlcmt-east ZN NECB System 3 PSZ, ERV not required based on 0% OA flow, design supply air flow of 591cfm, and climate zone NECB HDD Method.",
               "For Sp-Perimeter_ZN_2 Sys-3 Flr-1 Sch-A HPlcmt-east ZN NECB System 3 PSZ, ERV not required based on exhaust heat content.",
               "For NECB 2011 NECB HDD Method:  Sp-Perimeter_ZN_2 Sys-3 Flr-1 Sch-A HPlcmt-east ZN NECB System 3 PSZ: DCV is not required for any system.",
               "For Sp-Perimeter_ZN_2 Sys-3 Flr-1 Sch-A HPlcmt-east ZN NECB System 3 PSZ: Unoccupied fan shutoff not required because system fan HP of 0.6 HP is less than the minimum threshold of 0.75 HP.",
               "For Sp-Perimeter_ZN_2 Sys-3 Flr-1 Sch-A HPlcmt-east ZN NECB System 3 PSZ: Setting motorized OA damper schedule to Always On Discrete.",
               "For Sp-Perimeter_ZN_3 Sys-3 Flr-1 Sch-A HPlcmt-north ZN NECB System 3 PSZ, ERV not required based on 0% OA flow, design supply air flow of 537cfm, and climate zone NECB HDD Method.",
               "For Sp-Perimeter_ZN_3 Sys-3 Flr-1 Sch-A HPlcmt-north ZN NECB System 3 PSZ, ERV not required based on exhaust heat content.",
               "For NECB 2011 NECB HDD Method:  Sp-Perimeter_ZN_3 Sys-3 Flr-1 Sch-A HPlcmt-north ZN NECB System 3 PSZ: DCV is not required for any system.",
               "For Sp-Perimeter_ZN_3 Sys-3 Flr-1 Sch-A HPlcmt-north ZN NECB System 3 PSZ: Unoccupied fan shutoff not required because system fan HP of 0.54 HP is less than the minimum threshold of 0.75 HP.",
               "For Sp-Perimeter_ZN_3 Sys-3 Flr-1 Sch-A HPlcmt-north ZN NECB System 3 PSZ: Setting motorized OA damper schedule to Always On Discrete.",
               "For Sp-Perimeter_ZN_4 Sys-3 Flr-1 Sch-A HPlcmt-west ZN NECB System 3 PSZ, ERV not required based on 0% OA flow, design supply air flow of 666cfm, and climate zone NECB HDD Method.",
               "For Sp-Perimeter_ZN_4 Sys-3 Flr-1 Sch-A HPlcmt-west ZN NECB System 3 PSZ, ERV not required based on exhaust heat content.",
               "For NECB 2011 NECB HDD Method:  Sp-Perimeter_ZN_4 Sys-3 Flr-1 Sch-A HPlcmt-west ZN NECB System 3 PSZ: DCV is not required for any system.",
               "For Sp-Perimeter_ZN_4 Sys-3 Flr-1 Sch-A HPlcmt-west ZN NECB System 3 PSZ: Unoccupied fan shutoff not required because system fan HP of 0.67 HP is less than the minimum threshold of 0.75 HP.",
               "For Sp-Perimeter_ZN_4 Sys-3 Flr-1 Sch-A HPlcmt-west ZN NECB System 3 PSZ: Setting motorized OA damper schedule to Always On Discrete.",
               "For Fan Constant Volume 1: motor nameplate = 0.3345995813244125HP, motor eff = 61.5%.",
               "For Fan Constant Volume 2: motor nameplate = 0.36818388475486863HP, motor eff = 61.5%.",
               "For Fan Constant Volume 3: motor nameplate = 0.4147530155445708HP, motor eff = 61.5%.",
               "For Fan Constant Volume 4: motor nameplate = 0.3565400587148112HP, motor eff = 61.5%.",
               "For Fan Constant Volume 5: motor nameplate = 0.3563261977337711HP, motor eff = 61.5%.",
               "For Service Water Loop Pump: brake hp = 0.0HP, motor nameplate = 0.1HP, motor eff = 70.0%.",
               "For Pump Variable Speed 1: brake hp = 0.11HP, motor nameplate = 1.0HP, motor eff = 85.5%.",
               "For NECB 2011: Coil Cooling DX Single Speed 1: AirCooled All Other Single Package Capacity = 16kBtu/hr; SEER = 14.0",
               "For NECB 2011: Coil Cooling DX Single Speed 2: AirCooled All Other Single Package Capacity = 16kBtu/hr; SEER = 14.0",
               "For NECB 2011: Coil Cooling DX Single Speed 3: AirCooled All Other Single Package Capacity = 18kBtu/hr; SEER = 14.0",
               "For NECB 2011: Coil Cooling DX Single Speed 4: AirCooled All Other Single Package Capacity = 17kBtu/hr; SEER = 14.0",
               "For NECB 2011: Coil Cooling DX Single Speed 5: AirCooled All Other Single Package Capacity = 17kBtu/hr; SEER = 14.0",
               "For NECB 2011: Primary Boiler: Gas Hot Water Capacity = 80kBtu/hr; AFUE = 0.85",
               "For NECB 2011: Secondary Boiler: Gas Hot Water Capacity = 0kBtu/hr; AFUE = 0.85",
               "For NECB 2011: 40.0gal NaturalGas Water Heater - 40kBtu/hr 0.82 Therm Eff; thermal efficiency = 0.82, skin-loss UA = 6Btu/hr",
               "Finished applying HVAC efficiency standards.",
               "Started adding daylighting controls.",
               "For Attic, daylighting control not applicable because no exterior fenestration is present.",
               "For Core_ZN, daylighting control not applicable because no exterior fenestration is present.",
               "Finished adding daylighting controls.",
               "Total Time = 48sec."
            ],
            "step_result" : "Success",
            "step_values" : [
               {
                  "name" : "building_type",
                  "value" : "SmallOffice"
               },
               {
                  "name" : "template",
                  "value" : "NECB 2011"
               },
               {
                  "name" : "climate_zone",
                  "value" : "NECB HDD Method"
               },
               {
                  "name" : "epw_file",
                  "value" : "CAN_ON_Trenton.716210_CWEC.epw"
               }
            ],
            "step_warnings" : [
               "[openstudio.EpwFile] Successive data points (1969-Jan-31 to 1988-Feb-01, ending on line 753) are greater than 1 day apart in EPW file '/usr/local/bundle/bundler/gems/openstudio-standards-f448df66933d/openstudio-standards/data/weather/CAN_ON_Trenton.716210_CWEC.epw'. Data will be treated as typical (TMY)",
               "[openstudio.EpwFile] Successive data points (1969-Jan-31 to 1988-Feb-01, ending on line 753) are greater than 1 day apart in EPW file '/usr/local/bundle/bundler/gems/openstudio-standards-f448df66933d/openstudio-standards/data/weather/CAN_ON_Trenton.716210_CWEC.epw'. Data will be treated as typical (TMY)",
               "[openstudio.weather.Model] Could not find ground temperatures; will use generic temperatures, which will skew results.",
               "[openstudio.EpwFile] Successive data points (1969-Jan-31 to 1988-Feb-01, ending on line 753) are greater than 1 day apart in EPW file '/usr/local/bundle/bundler/gems/openstudio-standards-f448df66933d/openstudio-standards/data/weather/CAN_ON_Trenton.716210_CWEC.epw'. Data will be treated as typical (TMY)",
               "[openstudio.EpwFile] Successive data points (1969-Jan-31 to 1988-Feb-01, ending on line 753) are greater than 1 day apart in EPW file '/usr/local/bundle/bundler/gems/openstudio-standards-f448df66933d/openstudio-standards/data/weather/CAN_ON_Trenton.716210_CWEC.epw'. Data will be treated as typical (TMY)",
               "[openstudio.standards.Fan] For Fan Constant Volume 1, there is no greater nominal HP.  Use the efficiency of the largest motor category.",
               "[openstudio.standards.Fan] For Fan Constant Volume 2, there is no greater nominal HP.  Use the efficiency of the largest motor category.",
               "[openstudio.standards.Fan] For Fan Constant Volume 3, there is no greater nominal HP.  Use the efficiency of the largest motor category.",
               "[openstudio.standards.Fan] For Fan Constant Volume 4, there is no greater nominal HP.  Use the efficiency of the largest motor category.",
               "[openstudio.standards.Fan] For Fan Constant Volume 5, there is no greater nominal HP.  Use the efficiency of the largest motor category.",
               "[openstudio.EpwFile] Successive data points (1969-Jan-31 to 1988-Feb-01, ending on line 753) are greater than 1 day apart in EPW file '/usr/local/bundle/bundler/gems/openstudio-standards-f448df66933d/openstudio-standards/data/weather/CAN_ON_Trenton.716210_CWEC.epw'. Data will be treated as typical (TMY)",
               "[openstudio.EpwFile] Successive data points (1969-Jan-31 to 1988-Feb-01, ending on line 753) are greater than 1 day apart in EPW file '/usr/local/bundle/bundler/gems/openstudio-standards-f448df66933d/openstudio-standards/data/weather/CAN_ON_Trenton.716210_CWEC.epw'. Data will be treated as typical (TMY)",
               "[openstudio.EpwFile] Successive data points (1969-Jan-31 to 1988-Feb-01, ending on line 753) are greater than 1 day apart in EPW file '/usr/local/bundle/bundler/gems/openstudio-standards-f448df66933d/openstudio-standards/data/weather/CAN_ON_Trenton.716210_CWEC.epw'. Data will be treated as typical (TMY)",
               "[openstudio.EpwFile] Successive data points (1969-Jan-31 to 1988-Feb-01, ending on line 753) are greater than 1 day apart in EPW file '/usr/local/bundle/bundler/gems/openstudio-standards-f448df66933d/openstudio-standards/data/weather/CAN_ON_Trenton.716210_CWEC.epw'. Data will be treated as typical (TMY)",
               "[openstudio.EpwFile] Successive data points (1969-Jan-31 to 1988-Feb-01, ending on line 753) are greater than 1 day apart in EPW file '/usr/local/bundle/bundler/gems/openstudio-standards-f448df66933d/openstudio-standards/data/weather/CAN_ON_Trenton.716210_CWEC.epw'. Data will be treated as typical (TMY)",
               "[openstudio.standards.Fan] For Fan Constant Volume 1, there is no greater nominal HP.  Use the efficiency of the largest motor category.",
               "[openstudio.standards.Fan] For Fan Constant Volume 2, there is no greater nominal HP.  Use the efficiency of the largest motor category.",
               "[openstudio.standards.Fan] For Fan Constant Volume 3, there is no greater nominal HP.  Use the efficiency of the largest motor category.",
               "[openstudio.standards.Fan] For Fan Constant Volume 4, there is no greater nominal HP.  Use the efficiency of the largest motor category.",
               "[openstudio.standards.Fan] For Fan Constant Volume 5, there is no greater nominal HP.  Use the efficiency of the largest motor category."
            ]
         }
      },
      {
         "arguments" : {
            "__SKIP__" : false
         },
         "measure_dir_name" : "view_model",
         "name" : "view_model",
         "result" : {
            "completed_at" : "20170710T192049Z",
            "measure_class_name" : "ViewModel",
            "measure_display_name" : "ViewModel",
            "measure_name" : "view_model",
            "measure_taxonomy" : "Reporting.QAQC",
            "measure_type" : "ModelMeasure",
            "measure_uid" : "f4669f10-fda5-489d-8e1c-7ca3c2d40378",
            "measure_version_id" : "f4975c5f-7c25-42a2-927b-02d99b4427ef",
            "measure_version_modified" : "20170526T150340Z",
            "measure_xml_checksum" : "1E1F8B97",
            "started_at" : "20170710T192049Z",
            "stderr" : "",
            "stdout" : "[OpenStudio.Measure] <0> OSArgumentVector is deprecated, use OpenStudio::Measure::OSArgumentVector instead.\n",
            "step_errors" : [],
            "step_files" : [
               "/mnt/openstudio/analysis_4fef0e0f-5396-4c55-a6e1-2cd6803db3ab/data_point_ca7f5f8a-2751-47b6-8969-15b85cc566df/run/001_view_model/report.html",
               "/mnt/openstudio/analysis_4fef0e0f-5396-4c55-a6e1-2cd6803db3ab/data_point_ca7f5f8a-2751-47b6-8969-15b85cc566df/run/001_view_model/report.json"
            ],
            "step_final_condition" : "Report written to <a href='file:////mnt/openstudio/analysis_4fef0e0f-5396-4c55-a6e1-2cd6803db3ab/data_point_ca7f5f8a-2751-47b6-8969-15b85cc566df/run/001_view_model/report.html'>report.html</a>.",
            "step_info" : [ "No changes made to the model." ],
            "step_result" : "NA",
            "step_values" : [
               {
                  "name" : "view_model_html_zip",
[...]
LL9N2FTtDn9mYDxDPdsEsa+BPw5/VinNfMiYR5gFYU3ZpTmtPxgKGQ87PBtw7vn5VPVGy98MZb+1p71aR4noyicTsSQff89+8fs81vn7NKLZ+v3ZIBtLdbePVibdojjjUavpA1nLIJRcsleMJf9i7Vejsct9nz5injsD0R7h2996HzcKo23lZaEEWt/SpvS+YF9Ss3MXHVmV372z3TEMX9Askg3nuF9+PTR+Szu2NHRUd551RAz1Nlj/2Ta1Hk5j4T3ucrNXwzvMb1e9tesdUfSraUzzDwlW4jqnOVHD4jhsVziGn/IevJjta6cP+jJNL5sV30W6SN9nj/P6pE0Hj/XaaUjr6xqJU6i8LPQs5NfW9VSOPEGfnKnZ2p2ceVWZSbmpqqizAeS5WGlSngYDz6yzMN5eeBhO4ybopmEmz7XL9tZVtW6/kvZnEKW3V32x5/v2X/e/vmOnb599/7X339hb97+8usxe33y7kQP4FU6aotbT07RWBKyOIwSFkyvUj8YsGxJdsy8eJBOXvxgpIE473uJs5CZvW12rj+4RCKZRgGbeFEsXo1DL2l7csjfSh/lwmfn2WdanVk+RVswO2tCGfCXRzgi5iud7ezsl1xF+1FOrAEd0AEd0AEd0AEd0AEd0AEd0Nl4OqvnQkhGkRiCDdiADdiADdiADdiADdiADdiATTGblZOJJBt57hDogA7ogA7ogA7ogA7ogA7ogA7oVKGjf4pZ9g1bfkYZmIIpmIIpmIIpmIIpmIIpmIIpmIIpmG4G09LjNTOm+eGZYAqmYAqmYAqmYAqmYAqmYAqmYAqmYLoZTI3OOM5Y5ycYgzVYgzVYgzVYgzVYgzVYgzVYgzVYgzVYPyLrOa1h5N20S8FuncRPxuL00psIJxG3SfvZ63AaxeU07lbv/Nm/EkHsh8FYxBlCCcTuLns5HDKPZUjsxk8uWRxeCTbsltwZX48cbzKRx4m0pO3WVskN8+J4SRK1W7etbbbXMbzpriUPLdG+KU7u5Kkrkt6OFwwuw6h1f9SJIcZFGCQ7N8IfXSYS4zwcD/Ux8mfz+8nxTzsvd94OBtNJyubu2VbR03mxGw8if5L8qLzmxe7Qv364WnmPGizFYv7wqDWQrnucttbzAxGd8cMWy7rgqDX048nYu3vuB/Lsm53zcTj4/ENLzS8FzZvAkrtJer/shd1P3rWXf1p4pyzZgTzXI3Y0P3cnEDen16N267tVjtusJ4+xSX+URs3C4S0f/pqdyPO89ZVsX2s7rzm7bT3nTme7lQnIt553nE5/uzWQI01600zYr/VlWwvIpQLqUgH1qID6VEB7VED7VEAHS0C8Ms7hEk51PrxDBbTs2IfVgVwqoC4VUI8KqE8FtEcFtOzY+9WBDqj8aNmzu9XHx2XPdqsDcSoglwqIbMh2zcbsVfUkvdQWiaEBjjqzmeGoe8kMR91HZjjqtGaGo85qZjjqpGaGo8xpZjDKlGYGo85ohjjKhGaIo8xnhjjKdGaIo8xmhjjKZGaIo8xlhjjKVGaIo8xkhjjKRGY4GirzmCGOMo0Z4iizmCEO1fBckMNWgFZkKfTylxSuMABSJzBDIHUXGQKpu8gQSJ3DDIHUScwQSJ3FDIGUacwQR5nHDHHUicwUSJnJTIGUqcwUSJnLTIGUycwUSJnNTIGU6cwUSJnPTIGUCc0USJnRTMdHZUozBVLmNFMgZVIzBSIbsgvS2gqS/s5MzVeR+d5NAhsFbynJbBT8NUxmo+DvZDIbBa89yWwUvBEls1HwspTMxsEabByuwcZXSb4mI+uIdL6OUOfriHW+jmDn64h2vo5w5+uId76OgOfriHh3HRHvriW3ryPii9510xmpGPGlG2M0p1v51hkCGwVPhMxGwQMhs1HwPMhsFAzAZDYKxl8yGwXDL5mNgtGXzEbB4Etmo2i6RWdkHZFeNN2iM7KOWC+abtEZWUe0F0236IysI96Lplt0RtYR8UXTLToja8nt64j4oukWnZGKEW+0Bldz6pWv0iW2V/CkarFX8NBqsVfw/GqxVzB412KvYByvxV7BkF6LPfUqxFrMqRcr1mKuYE1jPfbUSx/rsadeIVmPPfVCynrsqddb1mNPvSyzHnvq1Zv12FMv8qzHnnotaD321EtG68nu6pWl9dhTL0Ctx556nWo99tY9fSmaf84NftTZ+THbm8WOWCBu5htLsv0k7fh6tJ3tDCndQjLf4BWL5KdwGgzjdr+zzTjvb7Ou/M3t621DuU1p3O9hGw6PvUSMwuju5a0f5xuk7jtAYxdZCvA2Goro3VTuV9K+UfK4W+bxm/DiaSRyGnLL1azja97Nh2pUoxrVqEY1qlGNalSjGtWoRjWqUY1qVKMa1ahGNapRjWpUoxrVqEY1qlGNalRvcPWdE16LKPKH4jdPLgziTsdyvU0moLu8tOdURL6IZ8uDWtvzBVCTcZg4UtW3dIlP/NA6o/KVQbGTCWdMwrGX+GGQkmrFiZjsnIuLMBItvZVbb8RIBMPlBuWftfc626wrV15JFWAuf8xknksVsOewztlIJCdBIvsnNXExDQYZ0/YW+6sEYs5Q3N/9oXQtmiz+BWsnl37sxNlT0TMky8JNTtp/J97gsv03YVO0Of2ZKPIM92wSxr4E/Dn9WKc18yJhHmAVhTdmlOa0/GAoZDzs8G3Du+flU9UbL3wxlv7WnvVpHiejKJxOxJB9/z37x+zzW+fs0otn6/dkgG0t1t49WJt2iOONRq+kDWcsglFyyV4wl/2LtV6Oxy32fPmKeOwPRHuHb33ofNwqjbeVloQRa39Km9L5gX1KzcxcdWZXfvbPdMQxf0CySDee4X349NH5LO7Y0dFR3nnVEDPU2WP/ZNrUeTmPhPe5ys1fDO8xvV7216x1R9KtpTPMPCVbiOqc5ecZiOGxXOIaf8h68mO1rpw/6Mk0vmxXfRbpI32eP8/qkTQeP9dppSOvrGolTqLws9Czk19b1VI48QZ+cqdnanZx5VZlJuamqqLMB5LlYaVKeBgPPrLMw3l54GE7jJuimYSbPtcv21lW1br+S9mcQpbdXfbHn+/Zf97++Y6dvn33/tfff2Fv3v7y6zF7ffLuRA/gVTpqi1tPTtFYErI4jBIWTK9SPxiwbEl2zLx4kE5e/GCkgTjve4mzkJm9bXauP7hEIplGAZt4USxejUMvaXtyyN9KH+XCZ+fZZ1qdWT5FWzA7a0IZ8JdHOHfmK83u7ECZXJD7UY7BAR3QAR3QAR3QAR3QAR3QAR3Q2Xg6q0dLSEaRGIIN2IAN2IAN2IAN2IAN2IAN2IBNMZuVM40kG3lgEeiADuiADuiADuiADuiADuiADuhUoaN/zln2DVt+iBmYgimYgimYgimYgimYgimYgimYgimYbgbT0oM2M6b5KZpgCqZgCqZgCqZgCqZgCqZgCqZgCqZguhlMjQ45zljnJxiDNViDNViDNViDNViDNViDNViDNViDNVg/Ius5rWHk3bRLwW6dxE/G4vTSmwgnEbdJ+9nrcBrF5TTuVu/82b8SQeyHwVjEGUIJxO4uezkcMo9lSOzGTy5ZHF4JNuyW3BlfjxxvMpHHibSk7dZWyQ3z4nhJErVbt61tttcxvOmuJQ8t0b4pTu7kqSuS3o4XDC7DqHV/1IkhxkUYJDs3wh9dJhLjPBwP9THyZ/P7yfFPOy93TkV07Q8E+7cnt9u8Fl7iB6NnW0VP6sVuPIj8SfKj8poXu0P/+uFq5T1qsBSL+cOj1kC68XHacs8PRHTmdlos646j1tCPJ2Pv7rkfyHNwds7H4eDzDy01vxQ0bwJL7ibp/bJHdj95117+aeGdsmSH81yP2NH8DJ5A3Jxej9qt71Y5brOePNIm/VEaQQsHuXz4a3Y6z/PWVxJ+re285uy29Zw7ne1WJibfen7Ycw4XS3e7NZBDUIowU/xrfdnWQnVrQe3WgtqrBbVfC+peLaj7C6j7fYfToB7UgnpYCyrv1APL64F164Ht1gPbqwe2Xw/sXj2w9cQYryfIeD1R5tYTZW49UebWk8TcerKYa5HGVgWpKswQIjE0ANXsWzNQzZ41A9XsVzNQzdmBGajm5MAMVHPcMgPVHLXMQDXHLDNQ3YmBIarmiGWIqjktMETVnBUYompOCgxRNecEhqiaUwJD1FoiS3dCYIhaS2zpTgcMUWuJLd3JgCFqLRlLdyqwgroimFJhGiD1VQxQNbvVEFWzWw1RNbvVEFVzKmCIqjkXMETVHLIMUTWHLENUzSHLEFV3PmAKqzlomcJqzghMYTWnBKawmnMCU1jNSYEprOaswBS2nhjTnReYwtYTZbozA1PYeqJMd25gCltPFtOdHazA6m+9rvL9Qr5Tm8Cg7lsbMoO673PIDOq+6SEzqPtdBplB3a85yAzur9vgwboNHq7b4NJMaT0W1z7W8LUPNnztow1f+3DD1z7e8LUPOHztIw5f+5DD1z7muGsfc9z1z2/WPuZof2NFZ5FizCndMVhlmppvMCQwqPsUyQzqPkQyg7rPkMygbtogM6ibNcgM6iYNMoO6OYPMoG7KIDOoPU2ls7j2sUZ7mkpnce2jjfY0lc7i2scb7WkqncW1jzja01Q6i2sfc7SnqXQW1z+/WfuYoz1NpbNIMeYYbeqoMmXN94AQG9d9urUY133QtRjXfea1GNdNObUY180+tRjXXT9bi3HdVba1GNddi1uLce2F8fVY113ZW4913WX29VjXXY1fj3XdRfv1WNdd21+Pdd0tAPVYf9SRTntDQT3WH3Ws096eUI/1Rx3rtKfr9Vh/1Bmd9jR+bv2jzi7M2Z5pdsQCcTPf5Jnt7WzH16PtbJdm6XbO+cbrWCQ/hdNgGLf7nW3GeX+bdeVvbl9vS+htSuN+b/lweOwlYhRGdy9v/TjfuHzfGxq7u1OAt9FQRO+mch+x9o2Sx90yj9+EF08jkdOQW6FnT8F2v3q2uXbZ1KmIfBHP6KaWZg9kMg4TR+74LTUZP9Tucqaxky3GmYRjL/HDICXVihMx2TkXF2EkWnqe9EaMRDBcblD+WXsv9YKu9AS5Q5jLH7Pt4KU75eewztlIJCdBIvsnNXExDQYZ0/YW+0tjP7hkKO7v/lAaG7L4F6ydXPpx6tfyPj1Dsizc5KT9d+INLtt/EzZFm9OfbZie4Z5NwtiXgD+nH+u0Zl4kzAOsovDGjNKclh8MhQzcHb5tePe8fKp644UvxtLf2rM+zeNkFIXTiRiy779n/5h9fuucXXrxbDyRAba1WHv3YG3aIY43Gr2SNpyxCEbJJXvBXPYv1no5HrfY8+Ur4rE/EO0dvvWh83GrNN5WWhJGrP0pbUrnB/YpNTNz1Zld+dk/jxg3f0CySDee4X349NH5LNLh7ego77xqiBnq7LF/Mm3qvJxHwvtc5eYvhveYXi/7a9a6I+nW0hlmnpIlRucs1z0Rw2OZcuMPWU9+rNaV8wc9mcaX7arPIn2kz/PnWT2SxuPnOq105JVVrcRJFH4Wenbya6taCifeIJ1t6ZmaXVy5VZmJuamqKPOBZHlYqRIexoOPLPNwXh540rkqN0UzCTd9rl+2s6yqdf2XsjmFLLu77I8/37P/vP3zHTt9++79r7//wt68/eXXY/b65N2JHsCrdNQWt56corEkZHGYTqSD6VXqBwOWTRFj5sWDdPLiByMNxHnfS5yFzOxts3P9wSUSyTQK2MSLYvFqHHpJ25ND/lb6KBc+O88+0+rM8inagtlZE8qAvzyCPtVXu9Iz4al8l/mjyGWBDuiADuiADuiADuiADuiADuhsPJ1V1Q/JKBJDsAEbsAEbsAEbsAEbsAEbsAEbsClms6KTJNlI3SPQAR3QAR3QAR3QAR3QAR3QAR3QqUJHXwMs+4Yt1/QCUzAFUzAFUzAFUzAFUzAFUzAFUzAF081gWiqmmDHNxRHBFEzBFEzBFEzBFEzBFEzBFEzBFEzBdDOYGimwZqxzRVWwBmuwBmuwBmuwBmuwBmuwBmuwBmuwButHZD2nNYy8m3Yp2K2T+MlYnF56E+Ek4jZpP3sdTqO4nMbd6p3vxdVERF4yjQRrv9qSGCUgu7vs5XDIPJZhsRs/uWRxeCXYsFtyZ3w9crzJRB4o0pLWW1slN8yL4yVJlB8hs9cxvEke+OLq3xQnd/LcFUlvxwsGl2HUuj/sxBDjIgySnRvhjy4TiXEejof6GPnT+f3k+KedlzvvL0V0FcaJl7BTkUxCPwU+DsOxH4yebRU9rxe78SDyJ8mPymte7A7964erlfeowVIs5g+PWgPpzsdp+z0/ENGZy1ss65Sj1tCPJ2Pv7rkfyPNwds7H4eDzDy01vxQ0bwJL7ibp/bJfdj95117+aeGdsmSH9FyP2NH8LJ5A3Jxej9qt71Y5brOePNom/VEaSQsHunz4+5Sor6T8VOeo7vWcrur0p1z5b+nsqQJUtxbUbi2ovVpQ+7Wg7tWCunjm3t6++gQwM9Sls/S4019E7VVGPawFdfmgTzpYXg+sWw9stx7YXj2w/Xpg9+qB3a8Htp4g4/VEmVtPlLn1RJlbTxJz68lirkUaWxWmqjBDiMTQAFSzb81ANXvWDFSzX81ANWcHZqCakwMzUM25gRmo5qhlBqo5ZpmB6k4MDFE1RyxDVM1pgSGq5qzAEFVzUmCIqjknMETVnBIYomrOCAxRawkt3fmAYQ6oJbZ0ZwOGqLUkLN25gCFq1ZS1IpxSYRogdVYMUDW71RBVs1sNUTW71RBVcypgiKo5FzBE1ZwMGKJqDlmGqJpDliGq7nzAFFZz0DKF1ZwRmMJqTglMYTXnBKawmpMCU1jNWYEprOa0wBS2niDTnRiYZoV6okx3amAKW08S050cmMJWTWP6W7CrfL+Q79gmMKj71obMoO77HDKDum96yAzqfpdBZlD3aw4yg/vrNniwboOH6za4NFNaj8W1jzV87YMNX/tow9c+3PC1jzd87QMOX/uIw9c+5PC1jznu2sccd/3zm7WPOdrfWNFZpBhzSncOVpmm5hsNCQzqPkUyg7oPkcyg7jMkM6ibNsgM6mYNMoO6SYPMoG7OIDOomzLIDGpPU+ksrn2s0Z6m0llc+2ijPU2ls7j28UZ7mkpnce0jjvY0lc7i2scc7WkqncX1z2/WPuZoT1PpLFKMOUabO6pMWfO9IMTGdZ9uLcZ1H3QtxnWfeS3GdVNOLcZ1s08txnXXqNdiXHeVbS3Gddfi1mJce2F8PdZ1V/bWY113mX091nVX49djXXfRfj3Wddf212NddwtAPdZ1dwrUY/1RhzrtfQf1zGkedazT3sVQj/VHndBpT93rsW46pfuoswtztneaHbFA3Mw3eWZ7O9vx9Wg726VZup1zvgE7FslP4TQYxu1+Z5tx3t9mXfmb29fbEnqb0rjfYz4cHnuJGIXR3ctbP863L9/3hsYu7xTgbTQU0bup3E2sfaPkcbfM4zfhxdNI5DTkhujZU7Ddt55trl02dSoiX8Qzuqml2QOZjMPEkTt+S03GD7W7nGnsZItxJuHYS/wwSEm14kRMds7FRRiJlp4nvREjEQyXG5R/1t5LvaArPUHuEObyx2xTeOl++TmsczYSyUmQyP5JTVxMg0HGtL3F/tLYFS4Zivu7P5TGhiz+BWsnl36c+rW8T8+QLAs3OWn/nXiDy/bfhE3R5vRnG6ZnuGeTMPYl4M/pxzqtmRcJ8wCrKLwxozSn5QdDIQN3h28b3j0vn6reeOGLsfS39qxP8zgZReF0Iobs++/ZP2af3zpnl148G09kgG0t1t49WJt2iOONRq+kDWcsglFyyV4wl/2LtV6Oxy32fPmKeOwPRHuHb33ofNwqjbeVloQRa39Km9L5gX1KzcxcdWZXfvbPI8bNH5As0o1neB8+fXQ+i3R4OzrKO68aYoY6e+yfTJs6L+eR8D5XufmL4T2m18v+mrXuSLq1dIaZp2SJ0TnL9U/E8Fim3PhD1pMfq3Xl/EFPpvFlu+qzSB/p8/x5Vo+k8fi5TisdeWVVK3EShZ+Fnp382qqWwok3SGdbeqZmF1duVWZibqoqynwgWR5WqoSH8eAjyzyclweedK7KTdFMwk2f65ftLKtqXf+lbE4hy+4u++PP9+w/b/98x07fvnv/6++/sDdvf/n1mL0+eXeiB/AqHbXFrSenaCwJWRymE+lgepX6wYBlU8SYefEgnbz4wUgDcd73EmchM3vb7Fx/cIlEMo0CNvGiWLwah17S9uSQv5U+yoXPzrPPtDqzfIq2YHbWhDLgL4+gU/XVrvRMgCrfZf4oslmgAzqgAzqgAzqgAzqgAzqgAzobT2dV9UMyisQQbMAGbMAGbMAGbMAGbMAGbMAGbIrZrOgkSTZS9wh0QAd0QAd0QAd0QAd0QAd0QAd0qtDR1wDLvmHLNb3AFEzBFEzBFEzBFEzBFEzBFEzBFEzBdDOYloopZkxzcUQwBVMwBVMwBVMwBVMwBVMwBVMwBVMw3QymRgqsGetcURWswRqswRqswRqswRqswRqswRqswRqswfoRWc9pDSPvpl0KduskfjIWp5feRDiJuE3az16H0ygup3G3eud7cTURkZdMI8Har7YkRgnI7i57ORwyj2VY7MZPLlkcXgk27JbcGV+PHG8ykQeKtKT11lbJDfPieEkS5UfI7HUMb5IHvrj6N8XJnTx3RdLb8YLBZRi17g87McS4CINk50b4o8tEYpyH46E+Rv50fj85/mnn5c77SxFdhXHiJexUJJPQT4FfCy/xg9GzraLn9WI3HkT+JPlRec2L3aF//XC18h41WIrF/OFRayDd+Thtv+cHIjpz3RbLOuWoNfTjydi7e+4H8jycnfNxOPj8Q0vNLwXNm8CSu0l6v+yX3U/etZd/WninLNkhPdcjdjQ/iycQN6fXo3bru1WO26wnj7ZJf5RG0sKBLh/+PiXqKyk/1TmqvJudATaQw4888SlX+1s6b6oAySVD6pIh9ciQ+mRIe2RI+2RIB2RIh2RIS4dvWkLReTmnc3NO5+ecztE5nadzOlfndL7O6Zyd03m7S+ftLuGYTuftLp23u4beviq8pJkBIzE0ACroKzOggp4yAyroJzOggjHBDKhgRDADKhgPzIAKRgMzoIKxwAyoKPEZIpH5dlHaM0Qi8+6ipGeIRObfRSnPEInMw4sSniESmY8XpTtDJLrxm8zHi3KdIZKJj68IX2imOamNYYBU0E2GSAXdZIhU0E2GSAVDgSFSwVBgiFQwFBgiFQwFhkgFQ4EhUlG+M4Wi8/KijGcKRefnRTnPFIrO04uynikUna8X5T1TKDpvL8p8plCEYzqdtxclP1OoUm/HYfQ4jH4GpHEbDqNfKTiMXocWDqPHYfRVCg6jlwWH0eMw+qzgMPriK3EYfTmALDiMfjPObAQd0AEd0AEd0AEd0AEd0AEd0Nl4Ok/sKEewARuwARuwARuwARuwARuwAZvNYfO0zmwEHdABHdABHdABHdABHdABHdB5UnQeUZzt5SDxr/3k7o24FmPW/jfk2Z6iPNvsIW2GElt3A5TYumtTYus4nT6JEJsVUJcKqEcF1KcC2qMC2qcCOqACOqQCWtqXb4dE5tuczLk5mXdzMvfmZP7NyRyck3k4J3NxTubjLpmPu3TjN5mPu2Q+7pr5uL7i2jJWdcE1Gxx1L1WXW7PBUY8C1cXWbHDUI0B1qTUbHHX0WwitWQFReXRBerNQWbMConLqgtxmIbFmBUTl1wWJzUJfzWpkpPLsgqxmIa5mBUTl2QUprbqy2jKOhbCaFZC6iyxk1ayA1MFvIapmBaQOfgtJNSsgdfDbCKrZIZH5dkFms1FTs0Mic++C5GYjpWaHRObhBfnNRkfNbqwk8/GCFGcjomaHRObjBVkOCmpQUIOC2gpDKKjJAgU1KKhBQa2gQEENCmpGrYKC2pJ9g+uhoLZYoKB2X2pYsPXEhAZAB3RAB3RAB3RAB3RAB3RAB3Q2ns4T0x8AG7ABG7ABG7ABG7ABG7ABG7DZHDbfjO4B6IAO6IAO6IAO6IAO6IAO6IBOdXuPoKAGwbQnJZh2OrgUw2nay3I7VCwSxjubIZvW2wDZtN7aZNP2sk2hVSVuqIC6VEA9KqA+FdAeFdA+FdABFdAhFdDS7ns7JDLf5mTOzcm8m5O5Nyfzb07m4JzMwzmZi3MyH3fJfNylG7/JfNwl83HXzMf1ZdOWsarLptngqHupumyaDY56FKgum2aDox4Bqsum2eCoo99CNs0KiMqjC9KbhWyaFRCVUxfkNgvZNCsgKr8uSGwWsmlWIyOVZxdkNQvZNCsgKs8uSGnVZdOWcSxk06yA1F1kIZtmBaQOfgvZNCsgdfBbyKZZAamD30Y2zQ6JzLcLMpuNbJodEpl7FyQ3G9k0OyQyDy/IbzayaXZjJZmPF6Q4G9k0OyQyHy/IcpBNg2waZNNWGEI2TRbIpkE2DbJpBQWyaZBNM2oVZNOW7BtcD9m0xQLZtPtSwyqtJ6YuADqgAzqgAzqgAzqgAzqgAzqgs/F0npjoANiADdiADdiADdiADdiADdiAzeaw+WbEDkAHdEAHdEAHdEAHdEAHdEAHdKrbg2zarEA27V42jW+GbFp/A2TT+muTTes4Lolqmg1OlwinR4TTJ8LZI8LZJ8I5IMI5JMJZ2nRvBUTl0ZzKpTmVT3Mqp+ZUXs2p3JpT+TWncmxO5dkulWe7ZGM1lWe7VJ7tGnm2vjzaElR1dTQLGGUPVddGs4BRxn11ZTQLGGXMV9dFs4BRxruFKpoNDpEfq9OYhSSaDQ6RK6tzmIUemg0OkTerE5iFGJrNOEjkz+rsZaGEZoND5M/q1FVdBm0JxkIFzQZH2T0WGmg2OMpwt1BAs8FRhruF/pkNjjLcbdTPrICoPFqdwWykz6yAqJxancRsdM+sgKj8Wp3HbETPrEZGKs9WpzIbxTMrICrPVmczyJ1B7gxyZysMIXcmC+TOIHcGubOCArkzyJ0ZtQpyZ0v2Da6H3NligdzZfalhddUTUwUAHdABHdABHdABHdABHdABHdDZeDpPTCwAbMAGbMAGbMAGbMAGbMAGbMBmc9h8MyIFoAM6oAM6oAM6oAM6oAM6oAM61e1B7mxWIHd2L3fmbobc2d4GyJ3trVHurNMn0juzAOpSAfWogPpUQHtUQPtUQAdUQIdUQF9tt7dBIvNtTubcnMy7OZl7czL/5mQOzsk8nJO5OCfzcZfMx1268ZvMx10yH3fNfNxEBm0Ry0YHrTqOupdslNCq46hHARsttOo46hHARg2tOo46+q300CyAqDy6IL1ZSaJZAFE5dUFus1JFswCi8uuCxGYljGYxMlJ5dkFWs9JGswCi8uyClGYjj7aIY6WPZgGk7iIrhTQLIHXwW2mkWQCpg99KJc0CSB38djppNkhkvl2Q2eyk0myQyNy7ILnZqaXZIJF5eEF+sxNMsxkryXy8IMXZaabZIJH5eEGWg2waZNMgm7bCELJpskA2DbJpkE0rKJBNg2yaUasgm7Zk3+B6yKYtFsim3ZcaVmk9MXUB0AEd0AEd0AEd0AEd0AEd0AGdjafzxEQHwAZswAZswAZswAZswAZswAZsNofNNyN2ADqgAzqgAzqgAzqgAzqgAzqgU90eZNNmBbJp97Jp3c2QTdvfANm0/bXJpu1lm0KrStxQAXWpgHpUQH0qoD0qoH0qoAMqoEMqoKXd93ZIZL7NyZybk3k3J3NvTubfnMzBOZmHczIX52Q+7pL5uEs3fpP5uEvm466Zj+vLpi1jVZdNs8FR91J12TQbHPUoUF02zQZHPQJUl02zwVFHv4VsmhUQlUcXpDcL2TQrICqnLshtFrJpVkBUfl2Q2Cxk06xGRirPLshqFrJpVkBUnl2Q0qrLpi3jWMimWQGpu8hCNs0KSB38FrJpVkDq4LeQTbMCUge/jWyaHRKZbxdkNhvZNDskMvcuSG42sml2SGQeXpDfbGTT7MZKMh8vSHE2sml2SGQ+XpDlIJsG2TTIpq0whGyaLJBNg2waZNMKCmTTIJtm1CrIpi3ZN7gesmmLBbJp96WGVVpPTF0AdEAHdEAHdEAHdEAHdEAHdEBn4+k8MdEBsAEbsAEbsAEbsAEbsAEbsAGbzWHzzYgdgA7ogA7ogA7ogA7ogA7ogA7oVLcH2bRZgWzavWxabzNk0w42QDbtYG2yaR3HJVFNs8HpEuH0iHD6RDh7RDj7RDgHRDiHRDhLm+6tgKg8mlO5NKfyaU7l1JzKqzmVW3Mqv+ZUjs2pPNul8myXbKym8myXyrNdI8/Wl0dbgqqujmYBo+yh6tpoFjDKuK+ujGYBo4z56rpoFjDKeLdQRbPBIfJjdRqzkESzwSFyZXUOs9BDs8Eh8mZ1ArMQQ7MZB4n8WZ29LJTQbHCI/FmduqrLoC3BWKig2eAou8dCA80GRxnuFgpoNjjKcLfQP7PBUYa7jfqZFRCVR6szmI30mRUQlVOrk5iN7pkVEJVfq/OYjeiZ1chI5dnqVGajeGYFROXZ6mwGuTPInUHubIUh5M5kgdwZ5M4gd1ZQIHcGuTOjVkHubMm+wfWQO1sskDu7LzWsrnpiqgCgAzqgAzqgAzqgAzqgAzqgAzobT+eJiQWADdiADdiADdiADdiADdiADdhsDptvRqQAdEAHdEAHdEAHdEAHdEAHdECnuj3Inc0K5M7u5c76myF3drgBcmeHa5Q76/SJ9M4sgLpUQD0qoD4V0B4V0D4V0AEV0CEV0Ffb7W2QyHybkzk3J/NuTubenMy/OZmDczIP52Quzsl83CXzcZdu/CbzcZfMx10zHzeRQVvEstFBq46j7iUbJbTqOOpRwEYLrTqOegSwUUOrjqOOfis9NAsgKo8uSG9WkmgWQFROXZDbrFTRLICo/LogsVkJo1mMjFSeXZDVrLTRLICoPLsgpdnIoy3iWOmjWQCpu8hKIc0CSB38VhppFkDq4LdSSbMAUge/nU6aDRKZbxdkNjupNBskMvcuSG52amk2SGQeXpDf7ATTbMZKMh8vSHF2mmk2SGQ+XpDlIJsG2TTIpq0whGyaLJBNg2waZNMKCmTTIJtm1CrIpi3ZN7gesmmLBbJp96WGVVpPTF0AdEAHdEAHdEAHdEAHdEAHdEBn4+k8MdEBsAEbsAEbsAEbsAEbsAEbsAGbzWHzzYgdgA7ogA7ogA7ogA7ogA7ogA7oVLcH2bRZgWzavWza3kbIpnU7T182LeW4Ltm0vWxTaFWJGyqgLhVQjwqoTwW0RwW0TwV0QAV0SAW0tPveDonMtzmZc3My7+Zk7s3J/JuTOTgn83BO5uKczMddMh936cZvMh93yXzcNfNxfdm0Zazqsmk2OOpeqi6bZoOjHgWqy6bZ4KhHgOqyaTY46ui3kE2zAqLy6IL0ZiGbZgVE5dQFuc1CNs0KiMqvCxKbhWya1chI5dkFWc1CNs0KiMqzC1Jaddm0ZRwL2TQrIHUXWcimWQGpg99CNs0KSB38FrJpVkDq4LeRTbNDIvPtgsxmI5tmh0Tm3gXJzUY2zQ6JzMML8puNbJrdWEnm4wUpzkY2zQ6JzMcLshxk0yCbBtm0FYaQTZMFsmmQTYNsWkGBbBpk04xaBdm0JfsG10M2bbFANu2+1LBK64mpC4AO6IAO6IAO6IAO6IAO6IAO6Gw8nScmOgA2YAM2YAM2YAM2YAM2YAM2YLM5bL4ZsQPQAR3QAR3QAR3QAR3QAR3QAZ3q9iCbNiuQTbuXTdvfDNk0vgGyaXxtsmkdxyVRTbPB6RLh9Ihw+kQ4e0Q4+0Q4B0Q4h0Q4S5vurYCoPJpTuTSn8mlO5dScyqs5lVtzKr/mVI7NqTzbpfJsl2yspvJsl8qzXSPP1pdHW4Kqro5mAaPsoeraaBYwyrivroxmAaOM+eq6aBYwyni3UEWzwSHyY3Uas5BEs8EhcmV1DrPQQ7PBIfJmdQKzEEOzGQeJ/FmdvSyU0GxwiPxZnbqqy6AtwViooNngKLvHQgPNBkcZ7hYKaDY4ynC30D+zwVGGu436mRUQlUerM5iN9JkVEJVTq5OYje6ZFRCVX6vzmI3omdXISOXZ6lRmo3hmBUTl2epsBrkzyJ1B7myFIeTOZIHcGeTOIHdWUCB3Brkzo1ZB7mzJvsH1kDtbLJA7uy81rK56YqoAoAM6oAM6oAM6oAM6oAM6oAM6G0/niYkFgA3YgA3YgA3YgA3YgA3YgA3YbA6bb0akAHRAB3RAB3RAB3RAB3RAB3RAp7o9yJ3NCuTO5nJn3c1QO3M3QO3MXaPaWadPJHdmAdSlAupRAfWpgPaogPapgA6ogA6pgL7abW+DRObbnMy5OZl3czL35mT+zckcnJN5OCdzcU7m4y6Zj7t04zeZj7tkPu6a+biJCtoilo0MWnUcdS/ZCKFVx1GPAjZSaNVx1COAjRhadRx19FvJoVkAUXl0QXqzUkSzAKJy6oLcZiWKZgFE5dcFic1KF81iZKTy7IKsZiWNZgFE5dkFKc1GHW0Rx0oezQJI3UVWAmkWQOrgt5JIswBSB7+VSJoFkDr47WTSbJDIfLsgs9kppdkgkbl3QXKzE0uzQSLz8IL8ZqeXZjNWkvl4QYqzk0yzQSLz8YIsB9U0qKZBNW2FIVTTZIFqGlTToJpWUKCaBtU0o1ZBNW3JvsH1UE1bLFBNuy81LNJ6YuICoAM6oAM6oAM6oAM6oAM6oAM6G0/niWkOgA3YgA3YgA3YgA3YgA3YgA3YbA6bb0brAHRAB3RAB3RAB3RAB3RAB3RAp7o9qKbNClTT5qppvc1QTetugGpad22qaXvZntCqCjdUQF0qoB4VUJ8KaI8KaJ8K6IAK6JAKaGnzvR0SmW9zMufmZN7Nydybk/k3J3NwTubhnMzFOZmPu2Q+7tKN32Q+7pL5uGvm4/qqactY1VXTbHDUvVRdNc0GRz0KVFdNs8FRjwDVVdNscNTRb6GaZgVE5dEF6c1CNc0KiMqpC3KbhWqaFRCVXxckNgvVNKuRkcqzC7KahWqaFRCVZxektOqqacs4FqppVkDqLrJQTbMCUge/hWqaFZA6+C1U06yA1MFvo5pmh0Tm2wWZzUY1zQ6JzL0LkpuNapodEpmHF+Q3G9U0u7GSzMcLUpyNapodEpmPF2Q5qKZBNQ2qaSsMoZomC1TToJoG1bSCAtU0qKYZtQqqaUv2Da6HatpigWrafalhkdYTExcAHdABHdABHdABHdABHdABHdDZeDpPTHMAbMAGbMAGbMAGbMAGbMAGbMBmc9h8M1oHoAM6oAM6oAM6oAM6oAM6oAM61e1BNW1WoJo2V03rb4ZqWm8DVNN6a1NN6zguiWiaDU6XCKdHhNMnwtkjwtknwjkgwjkkwlnac28FROXRnMqlOZVPcyqn5lRezancmlP5NadybE7l2S6VZ7tkYzWVZ7tUnu0aeba+OtoSVHVxNAsYZQ9Vl0azgFHGfXVhNAsYZcxXl0WzgFHGu4Uomg0OkR+r05iFIpoNDpErq3OYhRyaDQ6RN6sTmIUWms04SOTP6uxlIYRmg0Pkz+rUVV0FbQnGQgTNBkfZPRYSaDY4ynC3EECzwVGGu4X8mQ2OMtxtxM+sgKg8Wp3BbJTPrIConFqdxGxkz6yAqPxancdsNM+sRkYqz1anMhvBMysgKs9WZzOonUHtDGpnKwyhdiYL1M6gdga1s4ICtTOonRm1CmpnS/YNrofa2WKB2tl9qWFx1RMTBQAd0AEd0AEd0AEd0AEd0AEd0Nl4Ok9MKwBswAZswAZswAZswAZswAZswGZz2HwzGgWgAzqgAzqgAzqgAzqgAzqgAzrV7UHtbFagdjZXO9vbDLWz/gaonfXXqHbW6RPJnVkAdamAelRAfSqgPSqgfSqgAyqgQyqgr3bb2yCR+TYnc25O5t2czL05mX9zMgfnZB7OyVyck/m4S+bjLt34TebjLpmPu2Y+bqKCtohlI4NWHUfdSzZCaNVx1KOAjRRadRz1CGAjhlYdRx39VnJoFkBUHl2Q3qwU0SyAqJy6ILdZiaJZAFH5dUFis9JFsxgZqTy7IKtZSaNZAFF5dkFKs1FHW8SxkkezAFJ3kZVAmgWQOvitJNIsgNTBbyWSZgGkDn47mTQbJDLfLshsdkppNkhk7l2Q3OzE0myQyDy8IL/Z6aXZjJVkPl6Q4uwk02yQyHy8IMtBNQ2qaVBNW2EI1TRZoJoG1TSophUUqKZBNc2oVVBNW7JvcD1U0xYLVNPuSw2LtJ6YuADogA7ogA7ogA7ogA7ogA7ogM7G03limgNgAzZgAzZgAzZgAzZgAzZgAzabw+ab0ToAHdABHdABHdABHdABHdABHdCpbg+qabMC1bS5atr+Zqim7W2Aatre2lTT9rI9oVUVbqiAulRAPSqgPhXQHhXQPhXQARXQIRXQ0uZ7OyQy3+Zkzs3JvJuTuTcn829O5uCczMM5mYtzMh93yXzcpRu/yXzcJfNx18zH9VXTlrGqq6bZ4Kh7qbpqmg2OehSorppmg6MeAaqrptngqKPfQjXNCojKowvSm4VqmhUQlVMX5DYL1TQrICq/LkhsFqppViMjlWcXZDUL1TQrICrPLkhp1VXTlnEsVNOsgNRdZKGaZgWkDn4L1TQrIHXwW6imWQGpg99GNc0Oicy3CzKbjWqaHRKZexckNxvVNDskMg8vyG82qml2YyWZjxekOBvVNDskMh8vyHJQTYNqGlTTVhhCNU0WqKZBNQ2qaQUFqmlQTTNqFVTTluwbXA/VtMUC1bT7UsMirScmLgA6oAM6oAM6oAM6oAM6oAM6oLPxdJ6Y5gDYgA3YgA3YgA3YgA3YgA3YgM3msPlmtA5AB3RAB3RAB3RAB3RAB3RAB3Sq24Nq2qxANW2umnawGapp+xugmra/NtW0juOSiKbZ4HSJcHpEOH0inD0inH0inAMinEMinKU991ZAVB7NqVyaU/k0p3JqTuXVnMqtOZVfcyrH5lSe7VJ5tks2VlN5tkvl2a6RZ+uroy1BVRdHs4BR9lB1aTQLGGXcVxdGs4BRxnx1WTQLGGW8W4ii2eAQ+bE6jVkootngELmyOodZyKHZ4BB5szqBWWih2YyDRP6szl4WQmg2OET+rE5d1VXQlmAsRNBscJTdYyGBZoOjDHcLATQbHGW4W8if2eAow91G/MwKiMqj1RnMRvnMCojKqdVJzEb2zAqIyq/VecxG88xqZKTybHUqsxE8swKi8mx1NoPaGdTOoHa2whBqZ7JA7QxqZ1A7KyhQO4PamVGroHa2ZN/geqidLRaond2XGhZXPTFRANABHdABHdABHdABHdABHdABnY2n88S0AsAGbMAGbMAGbMAGbMAGbMAGbDaHzTejUQA6oAM6oAM6oAM6oAM6oAM6oFPdHtTOZgVqZ3O1s8PNUDs72AC1s4O1qZ3xXsfpLBTeIxE/I4Tt1gPbqwe2Xw/sXj2w+/XAHtQDe1gP7NJef0rcmuKM1xRovKZI4zWFGq8p1nhNwcZrijZeU7jxmuLNrSne3LryWk3x5tYUb65NvOmryhUhVxeZo0PV7d3qEnR0qLojWXWBOjpU3VGsunwdHaruCGYhbkcIW090aU8XLJTwCGHrCTDtuYKFbB4hbD0xpj1RsNDYI8wK9USZ9izBQpCPELaeKNOeIlRX7ytCtRDzI4TV7VoLqT9CWN0BzEIIkBBWdwCzkAkkhNUdwGxEBClxa4oz7ZmCjeIgJW5NoaY9WbCRJ6TErSnatOcLNlqGlHmipnjTnjLYCB9S4tYUb9qzBqgkQiURKokrDKGSKAtUEqGSCJXEggKVRKgkGrUKKolL9g2uh0riYoFK4n2pYVHmExMTAR3QAR3QAR3QAR3QAR3QAR3Q2Xg6T0xjBGzABmzABmzABmzABmzABmzAZnPYfDPaJqADOqADOqADOqADOqADOqADOtXtPYJK4ntxNRGRl0wjwdqvtiCa+LREE0V07Q8E+7cnPe9NGE6YfGBynXOv82ozBBQPN0BA8XBtAop7h87hQjk4JNFPpEPt1oLaqwW1XwvqXi2o+7WgHtSCelgL6pK8ASFsPdHF6wkvXk988XoCjNcTYbyeEOP1xBivJ8h4PVHm1hNlbk05rJ4oc+uJMtciyvSFEguAq+skkoFq9mx1lUQyUM2xq7pGIhmo5rhVXSGRDFRzzLLQR6RDrSWmdKcFFuKIdKi1hJXunMBCGZEOtZbI0p0QWMgi0uWAWmJLdzZgoYlIh1pLbOlOBaoLIhaAWugh0qFqdquFGiIdquaQZaGFSIeqOWRZKCHSoWoOWTY6iISw9USX7ozARgSRELaeANOdFNgoIBLC1hNjuvMCG/lDwqxQT5TpTg1stA8JYeuJMt3ZAYQPIXwI4cMVhhA+lAXChxA+hPBhQYHwIYQPjVoF4cMl+wbXQ/hwsUD48L7UsM7yiemDgA7ogA7ogA7ogA7ogA7ogA7obDydJyYbAjZgAzZgAzZgAzZgAzZgAzZgszlsvhm5EtABHdABHdABHdABHdABHdABner2IHz4cPlmhQ9zwcPXIvvfy6tzXwRJLn14OrgUw2na/ztsf0MkEHudpy+BmHJclwRitvG0qgQTEU6XCKdHhNMnwtkjwtknwjkgwjkkwlnSFrACovJoTuXSnMqnOZVTcyqv5lRuzan8mlM5NqfybJfKs12ysZrKs10qz3aNPFtfsm8JqrpInwWMsoeqC/FZwCjjvrrYngWMMuarC+pZwCjj3UI0zwaHyI/VacxCCs8Gh8iV1TnMQuDOBofIm9UJzEK2zmYcJPJndfayEKOzwSHyZ3Xqqi4xtwRjISpng6PsHgvhOBscZbhbiMPZ4CjD3UIAzgZHGe42Im9WQFQerc5gNtJtVkBUTq1OYjaCbFZAVH6tzmM2MmtWIyOVZ6tTmY14mhUQlWersxkk0TZCEg3VqEY1qlGNalSjGtWoRjWqUY1qVKMa1U+p+s4Jr0UU+UPxmydfVHGnA0n8hZZAEv++QBLfqEASH5L4BgWS+F8XSOJ/XSCJb1ggiQ9J/AcLJPFBB3RAB3RAB3RAB3RAB3RAB3RAZxMEJcEGbMAGbMAGbMAGbMAGbMAGbDaHzTcjZAk6oAM6oAM6oAM6oAM6oAM6oFPd3iNI4v/sX4kg9sNgLOIYgvhPSxA/jD6zk4sLf+CLYHB3L4O/XgH82dVf1Sz+e/57/v979Nkv9/87D4d38v+XydX4x//6/x+KGac="
               },
               {
                  "name" : "annual_peak_electric_demand",
                  "units" : "kW",
                  "value" : 17.303850000000001
               },
               {
                  "name" : "first_year_capital_cost",
                  "units" : "$",
                  "value" : 0
               },
               {
                  "name" : "annual_utility_cost",
                  "units" : "$",
                  "value" : 8830.5799999999999
               },
               {
                  "name" : "total_lifecycle_cost",
                  "units" : "$",
                  "value" : 149596.76999999999
               }
            ],
            "step_warnings" : []
         }
      }
   ],
   "updated_at" : "20170710T192158Z",
   "weather_file" : "USA_CO_Denver.Intl.AP.725650_TMY3.epw"
}
