{
   "completed_at" : "20170710T183343Z",
   "completed_status" : "Success",
   "created_at" : "2017-07-10 18:26:13 +0000",
   "current_step" : 5,
   "description" : "",
   "eplusout_err" : "Program Version,EnergyPlus, Version 8.7.0-78a111df4a, YMD=2017.07.10 18:29,IDD_Version 8.7.0\n   ************* IDF Context for following error/warning message:\n   ************* Note -- lines truncated at 300 characters, if necessary...\n   *************      5 Building,\n   ************* indicated Name=NECB 2011-PrimarySchool-NECB HDD Method-CAN_ON_Trenton.716210_CWEC.epw created: 2017-07-10 18:26:20 +0000\n   ************* Only last 1 lines before error line shown.....\n   *************      6   NECB 2011-PrimarySchool-NECB HDD Method-CAN_ON_Trenton.716210_CWEC.epw created: 2017-07-10 18:26:20 +0000, !- Name\n   ** Warning ** IP: IDF line~6 Alpha Argument length exceeds maximum, will be truncated=  NECB 2011-PrimarySchool-NECB HDD Method-CAN_ON_Trenton.716210_CWEC.epw created: 2017-07-10 18:26:20 +000\n   **   ~~~   ** Will be processed as Alpha=NECB 2011-PRIMARYSCHOOL-NECB HDD METHOD-CAN_ON_TRENTON.716210_CWEC.EPW CREATED: 2017-07-10 18:26:20 +0000\n   ************* IDF Context for following error/warning message:\n   ************* Note -- lines truncated at 300 characters, if necessary...\n   *************   1058 Schedule:Week:Daily,\n   ************* indicated Name=Schedule:Week:Daily {791eaaf0-a520-4e4c-9a81-011747b2f1b5}\n   ************* Only last 10 lines before error line shown.....\n   *************   1059   Schedule:Week:Daily {791eaaf0-a520-4e4c-9a81-011747b2f1b5}, !- Name\n   *************   1060   Sp-Cafeteria_ZN_1_FLR_1 Sys-3 Flr-1 Sch-C HPlcmt-north ZN NECB System 3 PSZ Occ Sch Sunday, !- Sunday Schedule:Day Name\n   *************   1061   Sp-Cafeteria_ZN_1_FLR_1 Sys-3 Flr-1 Sch-C HPlcmt-north ZN NECB System 3 PSZ Occ Sch Monday, !- Monday Schedule:Day Name\n   *************   1062   Sp-Cafeteria_ZN_1_FLR_1 Sys-3 Flr-1 Sch-C HPlcmt-north ZN NECB System 3 PSZ Occ Sch Tuesday, !- Tuesday Schedule:Day Name\n   *************   1063   Sp-Cafeteria_ZN_1_FLR_1 Sys-3 Flr-1 Sch-C HPlcmt-north ZN NECB System 3 PSZ Occ Sch Wednesday, !- Wednesday Schedule:Day Name\n   *************   1064   Sp-Cafeteria_ZN_1_FLR_1 Sys-3 Flr-1 Sch-C HPlcmt-north ZN NECB System 3 PSZ Occ Sch Thursday, !- Thursday Schedule:Day Name\n   *************   1065   Sp-Cafeteria_ZN_1_FLR_1 Sys-3 Flr-1 Sch-C HPlcmt-north ZN NECB System 3 PSZ Occ Sch Friday, !- Friday Schedule:Day Name\n   *************   1066   Sp-Cafeteria_ZN_1_FLR_1 Sys-3 Flr-1 Sch-C HPlcmt-north ZN NECB System 3 PSZ Occ Sch Saturday, !- Saturday Schedule:Day Name\n   *************   1067   Sp-Cafeteria_ZN_1_FLR_1 Sys-3 Flr-1 Sch-C HPlcmt-north ZN NECB System 3 PSZ Occ Sch Default, !- Holiday Schedule:Day Name\n   *************   1068   Sp-Cafeteria_ZN_1_FLR_1 Sys-3 Flr-1 Sch-C HPlcmt-north ZN NECB System 3 PSZ Occ Sch Summer Design Day, !- SummerDesignDay Schedule:Day Name\n   ** Warning ** IP: IDF line~1068 Alpha Argument length exceeds maximum, will be truncated=  Sp-Cafeteria_ZN_1_FLR_1 Sys-3 Flr-1 Sch-C HPlcmt-north ZN NECB System 3 PSZ Occ Sch Summer Design Da\n   **   ~~~   ** Will be processed as Alpha=SP-CAFETERIA_ZN_1_FLR_1 SYS-3 FLR-1 SCH-C HPLCMT-NORTH ZN NECB SYSTEM 3 PSZ OCC SCH SUMMER DESIGN DAY\n   ************* IDF Context for following error/warning message:\n   ************* Note -- lines truncated at 300 characters, if necessary...\n   *************   1058 Schedule:Week:Daily,\n   ************* indicated Name=Schedule:Week:Daily {791eaaf0-a520-4e4c-9a81-011747b2f1b5}\n   ************* Only last 10 lines before error line shown.....\n   *************   1060   Sp-Cafeteria_ZN_1_FLR_1 Sys-3 Flr-1 Sch-C HPlcmt-north ZN NECB System 3 PSZ Occ Sch Sunday, !- Sunday Schedule:Day Name\n   *************   1061   Sp-Cafeteria_ZN_1_FLR_1 Sys-3 Flr-1 Sch-C HPlcmt-north ZN NECB System 3 PSZ Occ Sch Monday, !- Monday Schedule:Day Name\n   *************   1062   Sp-Cafeteria_ZN_1_FLR_1 Sys-3 Flr-1 Sch-C HPlcmt-north ZN NECB System 3 PSZ Occ Sch Tuesday, !- Tuesday Schedule:Day Name\n   *************   1063   Sp-Cafeteria_ZN_1_FLR_1 Sys-3 Flr-1 Sch-C HPlcmt-north ZN NECB System 3 PSZ Occ Sch Wednesday, !- Wednesday Schedule:Day Name\n   *************   1064   Sp-Cafeteria_ZN_1_FLR_1 Sys-3 Flr-1 Sch-C HPlcmt-north ZN NECB System 3 PSZ Occ Sch Thursday, !- Thursday Schedule:Day Name\n   *************   1065   Sp-Cafeteria_ZN_1_FLR_1 Sys-3 Flr-1 Sch-C HPlcmt-north ZN NECB System 3 PSZ Occ Sch Friday, !- Friday Schedule:Day Name\n   *************   1066   Sp-Cafeteria_ZN_1_FLR_1 Sys-3 Flr-1 Sch-C HPlcmt-north ZN NECB System 3 PSZ Occ Sch Saturday, !- Saturday Schedule:Day Name\n   *************   1067   Sp-Cafeteria_ZN_1_FLR_1 Sys-3 Flr-1 Sch-C HPlcmt-north ZN NECB System 3 PSZ Occ Sch Default, !- Holiday Schedule:Day Name\n   *************   1068   Sp-Cafeteria_ZN_1_FLR_1 Sys-3 Flr-1 Sch-C HPlcmt-north ZN NECB System 3 PSZ Occ Sch Summer Design Day, !- SummerDesignDay Schedule:Day Name\n   *************   1069   Sp-Cafeteria_ZN_1_FLR_1 Sys-3 Flr-1 Sch-C HPlcmt-north ZN NECB System 3 PSZ Occ Sch Winter Design Day, !- WinterDesignDay Schedule:Day Name\n   ** Warning ** IP: IDF line~1069 Alpha Argument length exceeds maximum, will be truncated=  Sp-Cafeteria_ZN_1_FLR_1 Sys-3 Flr-1 Sch-C HPlcmt-north ZN NECB System 3 PSZ Occ Sch Winter Design Da\n   **   ~~~   ** Will be processed as Alpha=SP-CAFETERIA_ZN_1_FLR_1 SYS-3 FLR-1 SCH-C HPLCMT-NORTH ZN NECB SYSTEM 3 PSZ OCC SCH WINTER DESIGN DAY\n   ************* IDF Context for following error/warning message:\n   ************* Note -- lines truncated at 300 characters, if necessary...\n   *************   1089 Schedule:Day:Interval,\n   ************* indicated Name=Sp-Cafeteria_ZN_1_FLR_1 Sys-3 Flr-1 Sch-C HPlcmt-north ZN NECB System 3 PSZ Occ Sch Summer Design Day\n   ************* Only last 1 lines before error line shown.....\n   *************   1090   Sp-Cafeteria_ZN_1_FLR_1 Sys-3 Flr-1 Sch-C HPlcmt-north ZN NECB System 3 PSZ Occ Sch Summer Design Day, !- Name\n   ** Warning ** IP: IDF line~1090 Alpha Argument length exceeds maximum, will be truncated=  Sp-Cafeteria_ZN_1_FLR_1 Sys-3 Flr-1 Sch-C HPlcmt-north ZN NECB System 3 PSZ Occ Sch Summer Design Da\n   **   ~~~   ** Will be processed as Alpha=SP-CAFETERIA_ZN_1_FLR_1 SYS-3 FLR-1 SCH-C HPLCMT-NORTH ZN NECB SYSTEM 3 PSZ OCC SCH SUMMER DESIGN DAY\n   ************* IDF Context for following error/warning message:\n   ************* Note -- lines truncated at 300 characters, if necessary...\n   *************   1096 Schedule:Day:Interval,\n   ************* indicated Name=Sp-Cafeteria_ZN_1_FLR_1 Sys-3 Flr-1 Sch-C HPlcmt-north ZN NECB System 3 PSZ Occ Sch Winter Design Day\n   ************* Only last 1 lines before error line shown.....\n   *************   1097   Sp-Cafeteria_ZN_1_FLR_1 Sys-3 Flr-1 Sch-C HPlcmt-north ZN NECB System 3 PSZ Occ Sch Winter Design Day, !- Name\n   ** Warning ** IP: IDF line~1097 Alpha Argument length exceeds maximum, will be truncated=  Sp-Cafeteria_ZN_1_FLR_1 Sys-3 Flr-1 Sch-C HPlcmt-north ZN NECB System 3 PSZ Occ Sch Winter Design Da\n   **   ~~~   ** Will be processed as Alpha=SP-CAFETERIA_ZN_1_FLR_1 SYS-3 FLR-1 SCH-C HPLCMT-NORTH ZN NECB SYSTEM 3 PSZ OCC SCH WINTER DESIGN DAY\n   ************* IDF Context for following error/warning message:\n   ************* Note -- lines truncated at 300 characters, if necessary...\n   *************   1450 Schedule:Week:Daily,\n   ************* indicated Name=Schedule:Week:Daily {0d75e80d-548b-4e79-bdf7-5db08bf2b820}\n   ************* Only last 10 lines before error line shown.....\n   *************   1451   Schedule:Week:Daily {0d75e80d-548b-4e79-bdf7-5db08bf2b820}, !- Name\n   *************   1452   Sp-Computer_Class_ZN_1_FLR_1 Sys-3 Flr-1 Sch-D HPlcmt-north ZN NECB System 3 PSZ Occ Sch Sunday, !- Sunday Schedule:Day Name\n   *************   1453   Sp-Computer_Class_ZN_1_FLR_1 Sys-3 Flr-1 Sch-D HPlcmt-north ZN NECB System 3 PSZ Occ Sch Monday, !- Monday Schedule:Day Name\n   *************   1454   Sp-Computer_Class_ZN_1_FLR_1 Sys-3 Flr-1 Sch-D HPlcmt-north ZN NECB System 3 PSZ Occ Sch Tuesday, !- Tuesday Schedule:Day Name\n   *************   1455   Sp-Computer_Class_ZN_1_FLR_1 Sys-3 Flr-1 Sch-D HPlcmt-north ZN NECB System 3 PSZ Occ Sch Wednesday, !- Wednesday Schedule:Day Name\n   *************   1456   Sp-Computer_Class_ZN_1_FLR_1 Sys-3 Flr-1 Sch-D HPlcmt-north ZN NECB System 3 PSZ Occ Sch Thursday, !- Thursday Schedule:Day Name\n   *************   1457   Sp-Computer_Class_ZN_1_FLR_1 Sys-3 Flr-1 Sch-D HPlcmt-north ZN NECB System 3 PSZ Occ Sch Friday, !- Friday Schedule:Day Name\n   *************   1458   Sp-Computer_Class_ZN_1_FLR_1 Sys-3 Flr-1 Sch-D HPlcmt-north ZN NECB System 3 PSZ Occ Sch Saturday, !- Saturday Schedule:Day Name\n   *************   1459   Sp-Computer_Class_ZN_1_FLR_1 Sys-3 Flr-1 Sch-D HPlcmt-north ZN NECB System 3 PSZ Occ Sch Default, !- Holiday Schedule:Day Name\n   *************   1460   Sp-Computer_Class_ZN_1_FLR_1 Sys-3 Flr-1 Sch-D HPlcmt-north ZN NECB System 3 PSZ Occ Sch Summer Design Day, !- SummerDesignDay Schedule:Day Name\n   ** Warning ** IP: IDF line~1460 Alpha Argument length exceeds maximum, will be truncated=  Sp-Computer_Class_ZN_1_FLR_1 Sys-3 Flr-1 Sch-D HPlcmt-north ZN NECB System 3 PSZ Occ Sch Summer Design Da\n   **   ~~~   ** Will be processed as Alpha=SP-COMPUTER_CLASS_ZN_1_FLR_1 SYS-3 FLR-1 SCH-D HPLCMT-NORTH ZN NECB SYSTEM 3 PSZ OCC SCH SUMMER DESIGN DAY\n   ************* IDF Context for following error/warning message:\n   ************* Note -- lines truncated at 300 characters, if necessary...\n   *************   1450 Schedule:Week:Daily,\n   ************* indicated Name=Schedule:Week:Daily {0d75e80d-548b-4e79-bdf7-5db08bf2b820}\n   ************* Only last 10 lines before error line shown.....\n   *************   1452   Sp-Computer_Class_ZN_1_FLR_1 Sys-3 Flr-1 Sch-D HPlcmt-north ZN NECB System 3 PSZ Occ Sch Sunday, !- Sunday Schedule:Day Name\n   *************   1453   Sp-Computer_Class_ZN_1_FLR_1 Sys-3 Flr-1 Sch-D HPlcmt-north ZN NECB System 3 PSZ Occ Sch Monday, !- Monday Schedule:Day Name\n   *************   1454   Sp-Computer_Class_ZN_1_FLR_1 Sys-3 Flr-1 Sch-D HPlcmt-north ZN NECB System 3 PSZ Occ Sch Tuesday, !- Tuesday Schedule:Day Name\n   *************   1455   Sp-Computer_Class_ZN_1_FLR_1 Sys-3 Flr-1 Sch-D HPlcmt-north ZN NECB System 3 PSZ Occ Sch Wednesday, !- Wednesday Schedule:Day Name\n   *************   1456   Sp-Computer_Class_ZN_1_FLR_1 Sys-3 Flr-1 Sch-D HPlcmt-north ZN NECB System 3 PSZ Occ Sch Thursday, !- Thursday Schedule:Day Name\n   *************   1457   Sp-Computer_Class_ZN_1_FLR_1 Sys-3 Flr-1 Sch-D HPlcmt-north ZN NECB System 3 PSZ Occ Sch Friday, !- Friday Schedule:Day Name\n   *************   1458   Sp-Computer_Class_ZN_1_FLR_1 Sys-3 Flr-1 Sch-D HPlcmt-north ZN NECB System 3 PSZ Occ Sch Saturday, !- Saturday Schedule:Day Name\n   *************   1459   Sp-Computer_Class_ZN_1_FLR_1 Sys-3 Flr-1 Sch-D HPlcmt-north ZN NECB System 3 PSZ Occ Sch Default, !- Holiday Schedule:Day Name\n   *************   1460   Sp-Computer_Class_ZN_1_FLR_1 Sys-3 Flr-1 Sch-D HPlcmt-north ZN NECB System 3 PSZ Occ Sch Summer Design Day, !- SummerDesignDay Schedule:Day Name\n   *************   1461   Sp-Computer_Class_ZN_1_FLR_1 Sys-3 Flr-1 Sch-D HPlcmt-north ZN NECB System 3 PSZ Occ Sch Winter Design Day, !- WinterDesignDay Schedule:Day Name\n   ** Warning ** IP: IDF line~1461 Alpha Argument length exceeds maximum, will be truncated=  Sp-Computer_Class_ZN_1_FLR_1 Sys-3 Flr-1 Sch-D HPlcmt-north ZN NECB System 3 PSZ Occ Sch Winter Design Da\n   **   ~~~   ** Will be processed as Alpha=SP-COMPUTER_CLASS_ZN_1_FLR_1 SYS-3 FLR-1 SCH-D HPLCMT-NORTH ZN NECB SYSTEM 3 PSZ OCC SCH WINTER DESIGN DAY\n   ************* IDF Context for following error/warning message:\n   ************* Note -- lines truncated at 300 characters, if necessary...\n   *************   1481 Schedule:Day:Interval,\n   ************* indicated Name=Sp-Computer_Class_ZN_1_FLR_1 Sys-3 Flr-1 Sch-D HPlcmt-north ZN NECB System 3 PSZ Occ Sch Summer Design Day\n   ************* Only last 1 lines before error line shown.....\n   *************   1482   Sp-Computer_Class_ZN_1_FLR_1 Sys-3 Flr-1 Sch-D HPlcmt-north ZN NECB System 3 PSZ Occ Sch Summer Design Day, !- Name\n   ** Warning ** IP: IDF line~1482 Alpha Argument length exceeds maximum, will be truncated=  Sp-Computer_Class_ZN_1_FLR_1 Sys-3 Flr-1 Sch-D HPlcmt-north ZN NECB System 3 PSZ Occ Sch Summer Design Da\n   **   ~~~   ** Will be processed as Alpha=SP-COMPUTER_CLASS_ZN_1_FLR_1 SYS-3 FLR-1 SCH-D HPLCMT-NORTH ZN NECB SYSTEM 3 PSZ OCC SCH SUMMER DESIGN DAY\n   ************* IDF Context for following error/warning message:\n   ************* Note -- lines truncated at 300 characters, if necessary...\n   *************   1488 Schedule:Day:Interval,\n   ************* indicated Name=Sp-Computer_Class_ZN_1_FLR_1 Sys-3 Flr-1 Sch-D HPlcmt-north ZN NECB System 3 PSZ Occ Sch Winter Design Day\n   ************* Only last 1 lines before error line shown.....\n   *************   1489   Sp-Computer_Class_ZN_1_FLR_1 Sys-3 Flr-1 Sch-D HPlcmt-north ZN NECB System 3 PSZ Occ Sch Winter Design Day, !- Name\n   ** Warning ** IP: IDF line~1489 Alpha Argument length exceeds maximum, will be truncated=  Sp-Computer_Class_ZN_1_FLR_1 Sys-3 Flr-1 Sch-D HPlcmt-north ZN NECB System 3 PSZ Occ Sch Winter Design Da\n   **   ~~~   ** Will be processed as Alpha=SP-COMPUTER_CLASS_ZN_1_FLR_1 SYS-3 FLR-1 SCH-D HPLCMT-NORTH ZN NECB SYSTEM 3 PSZ OCC SCH WINTER DESIGN DAY\n   ************* IDF Context for following error/warning message:\n   ************* Note -- lines truncated at 300 characters, if necessary...\n   *************   1769 Schedule:Day:Interval,\n   ************* indicated Name=Sp-Corner_Class_1_Pod_1_ZN_1_FLR_1 Sys-3 Flr-1 Sch-D HPlcmt-south ZN NECB System 3 PSZ Occ Sch Sunday\n   ************* Only last 1 lines before error line shown.....\n   *************   1770   Sp-Corner_Class_1_Pod_1_ZN_1_FLR_1 Sys-3 Flr-1 Sch-D HPlcmt-south ZN NECB System 3 PSZ Occ Sch Sunday, !- Name\n   ** Warning ** IP: IDF line~1770 Alpha Argument length exceeds maximum, will be truncated=  Sp-Corner_Class_1_Pod_1_ZN_1_FLR_1 Sys-3 Flr-1 Sch-D HPlcmt-south ZN NECB System 3 PSZ Occ Sch Sunda\n   **   ~~~   ** Will be processed as Alpha=SP-CORNER_CLASS_1_POD_1_ZN_1_FLR_1 SYS-3 FLR-1 SCH-D HPLCMT-SOUTH ZN NECB SYSTEM 3 PSZ OCC SCH SUNDAY\n   ************* IDF Context for following error/warning message:\n   ************* Note -- lines truncated at 300 characters, if necessary...\n   *************   1776 Schedule:Day:Interval,\n   ************* indicated Name=Sp-Corner_Class_1_Pod_1_ZN_1_FLR_1 Sys-3 Flr-1 Sch-D HPlcmt-south ZN NECB System 3 PSZ Occ Sch Monday\n   ************* Only last 1 lines before error line shown.....\n   *************   1777   Sp-Corner_Class_1_Pod_1_ZN_1_FLR_1 Sys-3 Flr-1 Sch-D HPlcmt-south ZN NECB System 3 PSZ Occ Sch Monday, !- Name\n   ** Warning ** IP: IDF line~1777 Alpha Argument length exceeds maximum, will be truncated=  Sp-Corner_Class_1_Pod_1_ZN_1_FLR_1 Sys-3 Flr-1 Sch-D HPlcmt-south ZN NECB System 3 PSZ Occ Sch Monda\n   **   ~~~   ** Will be processed as Alpha=SP-CORNER_CLASS_1_POD_1_ZN_1_FLR_1 SYS-3 FLR-1 SCH-D HPLCMT-SOUTH ZN NECB SYSTEM 3 PSZ OCC SCH MONDAY\n   ************* IDF Context for following error/warning message:\n   ************* Note -- lines truncated at 300 characters, if necessary...\n   *************   1791 Schedule:Day:Interval,\n   ************* indicated Name=Sp-Corner_Class_1_Pod_1_ZN_1_FLR_1 Sys-3 Flr-1 Sch-D HPlcmt-south ZN NECB System 3 PSZ Occ Sch Tuesday\n   ************* Only last 1 lines before error line shown.....\n   *************   1792   Sp-Corner_Class_1_Pod_1_ZN_1_FLR_1 Sys-3 Flr-1 Sch-D HPlcmt-south ZN NECB System 3 PSZ Occ Sch Tuesday, !- Name\n   ** Warning ** IP: IDF line~1792 Alpha Argument length exceeds maximum, will be truncated=  Sp-Corner_Class_1_Pod_1_ZN_1_FLR_1 Sys-3 Flr-1 Sch-D HPlcmt-south ZN NECB System 3 PSZ Occ Sch Tuesda\n   **   ~~~   ** Will be processed as Alpha=SP-CORNER_CLASS_1_POD_1_ZN_1_FLR_1 SYS-3 FLR-1 SCH-D HPLCMT-SOUTH ZN NECB SYSTEM 3 PSZ OCC SCH TUESDAY\n   ************* IDF Context for following error/warning message:\n   ************* Note -- lines truncated at 300 characters, if necessary...\n   *************   1806 Schedule:Day:Interval,\n   ************* indicated Name=Sp-Corner_Class_1_Pod_1_ZN_1_FLR_1 Sys-3 Flr-1 Sch-D HPlcmt-south ZN NECB System 3 PSZ Occ Sch Wednesday\n   ************* Only last 1 lines before error line shown.....\n   *************   1807   Sp-Corner_Class_1_Pod_1_ZN_1_FLR_1 Sys-3 Flr-1 Sch-D HPlcmt-south ZN NECB System 3 PSZ Occ Sch Wednesday, !- Name\n   ** Warning ** IP: IDF line~1807 Alpha Argument length exceeds maximum, will be truncated=  Sp-Corner_Class_1_Pod_1_ZN_1_FLR_1 Sys-3 Flr-1 Sch-D HPlcmt-south ZN NECB System 3 PSZ Occ Sch Wednesda\n   **   ~~~   ** Will be processed as Alpha=SP-CORNER_CLASS_1_POD_1_ZN_1_FLR_1 SYS-3 FLR-1 SCH-D HPLCMT-SOUTH ZN NECB SYSTEM 3 PSZ OCC SCH WEDNESDAY\n   ************* IDF Context for following error/warning message:\n   ************* Note -- lines truncated at 300 characters, if necessary...\n   *************   1821 Schedule:Day:Interval,\n   ************* indicated Name=Sp-Corner_Class_1_Pod_1_ZN_1_FLR_1 Sys-3 Flr-1 Sch-D HPlcmt-south ZN NECB System 3 PSZ Occ Sch Thursday\n   ************* Only last 1 lines before error line shown.....\n   *************   1822   Sp-Corner_Class_1_Pod_1_ZN_1_FLR_1 Sys-3 Flr-1 Sch-D HPlcmt-south ZN NECB System 3 PSZ Occ Sch Thursday, !- Name\n   ** Warning ** IP: IDF line~1822 Alpha Argument length exceeds maximum, will be truncated=  Sp-Corner_Class_1_Pod_1_ZN_1_FLR_1 Sys-3 Flr-1 Sch-D HPlcmt-south ZN NECB System 3 PSZ Occ Sch Thursda\n   **   ~~~   ** Will be processed as Alpha=SP-CORNER_CLASS_1_POD_1_ZN_1_FLR_1 SYS-3 FLR-1 SCH-D HPLCMT-SOUTH ZN NECB SYSTEM 3 PSZ OCC SCH THURSDAY\n   ************* IDF Context for following error/warning message:\n   ************* Note -- lines truncated at 300 characters, if necessary...\n   *************   1836 Schedule:Day:Interval,\n   ************* indicated Name=Sp-Corner_Class_1_Pod_1_ZN_1_FLR_1 Sys-3 Flr-1 Sch-D HPlcmt-south ZN NECB System 3 PSZ Occ Sch Friday\n   ************* Only last 1 lines before error line shown.....\n   *************   1837   Sp-Corner_Class_1_Pod_1_ZN_1_FLR_1 Sys-3 Flr-1 Sch-D HPlcmt-south ZN NECB System 3 PSZ Occ Sch Friday, !- Name\n   ** Warning ** IP: IDF line~1837 Alpha Argument length exceeds maximum, will be truncated=  Sp-Corner_Class_1_Pod_1_ZN_1_FLR_1 Sys-3 Flr-1 Sch-D HPlcmt-south ZN NECB System 3 PSZ Occ Sch Frida\n   **   ~~~   ** Will be processed as Alpha=SP-CORNER_CLASS_1_POD_1_ZN_1_FLR_1 SYS-3 FLR-1 SCH-D HPLCMT-SOUTH ZN NECB SYSTEM 3 PSZ OCC SCH FRIDAY\n   ************* IDF Context for following error/warning message:\n   ************* Note -- lines truncated at 300 characters, if necessary...\n   *************   1851 Schedule:Day:Interval,\n   ************* indicated Name=Sp-Corner_Class_1_Pod_1_ZN_1_FLR_1 Sys-3 Flr-1 Sch-D HPlcmt-south ZN NECB System 3 PSZ Occ Sch Saturday\n   ************* Only last 1 lines before error line shown.....\n   *************   1852   Sp-Corner_Class_1_Pod_1_ZN_1_FLR_1 Sys-3 Flr-1 Sch-D HPlcmt-south ZN NECB System 3 PSZ Occ Sch Saturday, !- Name\n   ** Warning ** IP: IDF line~1852 Alpha Argument length exceeds maximum, will be truncated=  Sp-Corner_Class_1_Pod_1_ZN_1_FLR_1 Sys-3 Flr-1 Sch-D HPlcmt-south ZN NECB System 3 PSZ Occ Sch Saturda\n   **   ~~~   ** Will be processed as Alpha=SP-CORNER_CLASS_1_POD_1_ZN_1_FLR_1 SYS-3 FLR-1 SCH-D HPLCMT-SOUTH ZN NECB SYSTEM 3 PSZ OCC SCH SATURDAY\n   ************* IDF Context for following error/warning message:\n   ************* Note -- lines truncated at 300 characters, if necessary...\n   *************   1858 Schedule:Week:Daily,\n   ************* indicated Name=Schedule:Week:Daily {6c07e131-69ed-4fb4-9ece-22194bac3974}\n   ************* Only last 2 lines before error line shown.....\n   *************   1859   Schedule:Week:Daily {6c07e131-69ed-4fb4-9ece-22194bac3974}, !- Name\n   *************   1860   Sp-Corner_Class_1_Pod_1_ZN_1_FLR_1 Sys-3 Flr-1 Sch-D HPlcmt-south ZN NECB System 3 PSZ Occ Sch Sunday, !- Sunday Schedule:Day Name\n   ** Warning ** IP: IDF line~1860 Alpha Argument length exceeds maximum, will be truncated=  Sp-Corner_Class_1_Pod_1_ZN_1_FLR_1 Sys-3 Flr-1 Sch-D HPlcmt-south ZN NECB System 3 PSZ Occ Sch Sunda\n   **   ~~~   ** Will be processed as Alpha=SP-CORNER_CLASS_1_POD_1_ZN_1_FLR_1 SYS-3 FLR-1 SCH-D HPLCMT-SOUTH ZN NECB SYSTEM 3 PSZ OCC SCH SUNDAY\n   ************* IDF Context for following error/warning message:\n   ************* Note -- lines truncated at 300 characters, if necessary...\n   *************   1858 Schedule:Week:Daily,\n   ************* indicated Name=Schedule:Week:Daily {6c07e131-69ed-4fb4-9ece-22194bac3974}\n   ************* Only last 3 lines before error line shown.....\n   *************   1859   Schedule:Week:Daily {6c07e131-69ed-4fb4-9ece-22194bac3974}, !- Name\n   *************   1860   Sp-Corner_Class_1_Pod_1_ZN_1_FLR_1 Sys-3 Flr-1 Sch-D HPlcmt-south ZN NECB System 3 PSZ Occ Sch Sunday, !- Sunday Schedule:Day Name\n   *************   1861   Sp-Corner_Class_1_Pod_1_ZN_1_FLR_1 Sys-3 Flr-1 Sch-D HPlcmt-south ZN NECB System 3 PSZ Occ Sch Monday, !- Monday Schedule:Day Name\n   ** Warning ** IP: IDF line~1861 Alpha Argument length exceeds maximum, will be truncated=  Sp-Corner_Class_1_Pod_1_ZN_1_FLR_1 Sys-3 Flr-1 Sch-D HPlcmt-south ZN NECB System 3 PSZ Occ Sch Monda\n   **   ~~~   ** Will be processed as Alpha=SP-CORNER_CLASS_1_POD_1_ZN_1_FLR_1 SYS-3 FLR-1 SCH-D HPLCMT-SOUTH ZN NECB SYSTEM 3 PSZ OCC SCH MONDAY\n   ************* IDF Context for following error/warning message:\n   ************* Note -- lines truncated at 300 characters, if necessary...\n   *************   1858 Schedule:Week:Daily,\n   ************* indicated Name=Schedule:Week:Daily {6c07e131-69ed-4fb4-9ece-22194bac3974}\n   ************* Only last 4 lines before error line shown.....\n   *************   1859   Schedule:Week:Daily {6c07e131-69ed-4fb4-9ece-22194bac3974}, !- Name\n   *************   1860   Sp-Corner_Class_1_Pod_1_ZN_1_FLR_1 Sys-3 Flr-1 Sch-D HPlcmt-south ZN NECB System 3 PSZ Occ Sch Sunday, !- Sunday Schedule:Day Name\n   *************   1861   Sp-Corner_Class_1_Pod_1_ZN_1_FLR_1 Sys-3 Flr-1 Sch-D HPlcmt-south ZN NECB System 3 PSZ Occ Sch Monday, !- Monday Schedule:Day Name\n   *************   1862   Sp-Corner_Class_1_Pod_1_ZN_1_FLR_1 Sys-3 Flr-1 Sch-D HPlcmt-south ZN NECB System 3 PSZ Occ Sch Tuesday, !- Tuesday Schedule:Day Name\n   ** Warning ** IP: IDF line~1862 Alpha Argument length exceeds maximum, will be truncated=  Sp-Corner_Class_1_Pod_1_ZN_1_FLR_1 Sys-3 Flr-1 Sch-D HPlcmt-south ZN NECB System 3 PSZ Occ Sch Tuesda\n   **   ~~~   ** Will be processed as Alpha=SP-CORNER_CLASS_1_POD_1_ZN_1_FLR_1 SYS-3 FLR-1 SCH-D HPLCMT-SOUTH ZN NECB SYSTEM 3 PSZ OCC SCH TUESDAY\n   ************* IDF Context for following error/warning message:\n   ************* Note -- lines truncated at 300 characters, if necessary...\n   *************   1858 Schedule:Week:Daily,\n   ************* indicated Name=Schedule:Week:Daily {6c07e131-69ed-4fb4-9ece-22194bac3974}\n   ************* Only last 5 lines before error line shown.....\n   *************   1859   Schedule:Week:Daily {6c07e131-69ed-4fb4-9ece-22194bac3974}, !- Name\n   *************   1860   Sp-Corner_Class_1_Pod_1_ZN_1_FLR_1 Sys-3 Flr-1 Sch-D HPlcmt-south ZN NECB System 3 PSZ Occ Sch Sunday, !- Sunday Schedule:Day Name\n   *************   1861   Sp-Corner_Class_1_Pod_1_ZN_1_FLR_1 Sys-3 Flr-1 Sch-D HPlcmt-south ZN NECB System 3 PSZ Occ Sch Monday, !- Monday Schedule:Day Name\n   *************   1862   Sp-Corner_Class_1_Pod_1_ZN_1_FLR_1 Sys-3 Flr-1 Sch-D HPlcmt-south ZN NECB System 3 PSZ Occ Sch Tuesday, !- Tuesday Schedule:Day Name\n   *************   1863   Sp-Corner_Class_1_Pod_1_ZN_1_FLR_1 Sys-3 Flr-1 Sch-D HPlcmt-south ZN NECB System 3 PSZ Occ Sch Wednesday, !- Wednesday Schedule:Day Name\n   ** Warning ** IP: IDF line~1863 Alpha Argument length exceeds maximum, will be truncated=  Sp-Corner_Class_1_Pod_1_ZN_1_FLR_1 Sys-3 Flr-1 Sch-D HPlcmt-south ZN NECB System 3 PSZ Occ Sch Wednesda\n   **   ~~~   ** Will be processed as Alpha=SP-CORNER_CLASS_1_POD_1_ZN_1_FLR_1 SYS-3 FLR-1 SCH-D HPLCMT-SOUTH ZN NECB SYSTEM 3 PSZ OCC SCH WEDNESDAY\n   ************* IDF Context for following error/warning message:\n   ************* Note -- lines truncated at 300 characters, if necessary...\n   *************   1858 Schedule:Week:Daily,\n   ************* indicated Name=Schedule:Week:Daily {6c07e131-69ed-4fb4-9ece-22194bac3974}\n   ************* Only last 6 lines before error line shown.....\n   *************   1859   Schedule:Week:Daily {6c07e131-69ed-4fb4-9ece-22194bac3974}, !- Name\n   *************   1860   Sp-Corner_Class_1_Pod_1_ZN_1_FLR_1 Sys-3 Flr-1 Sch-D HPlcmt-south ZN NECB System 3 PSZ Occ Sch Sunday, !- Sunday Schedule:Day Name\n   *************   1861   Sp-Corner_Class_1_Pod_1_ZN_1_FLR_1 Sys-3 Flr-1 Sch-D HPlcmt-south ZN NECB System 3 PSZ Occ Sch Monday, !- Monday Schedule:Day Name\n   *************   1862   Sp-Corner_Class_1_Pod_1_ZN_1_FLR_1 Sys-3 Flr-1 Sch-D HPlcmt-south ZN NECB System 3 PSZ Occ Sch Tuesday, !- Tuesday Schedule:Day Name\n   *************   1863   Sp-Corner_Class_1_Pod_1_ZN_1_FLR_1 Sys-3 Flr-1 Sch-D HPlcmt-south ZN NECB System 3 PSZ Occ Sch Wednesday, !- Wednesday Schedule:Day Name\n   *************   1864   Sp-Corner_Class_1_Pod_1_ZN_1_FLR_1 Sys-3 Flr-1 Sch-D HPlcmt-south ZN NECB System 3 PSZ Occ Sch Thursday, !- Thursday Schedule:Day Name\n   ** Warning ** IP: IDF line~1864 Alpha Argument length exceeds maximum, will be truncated=  Sp-Corner_Class_1_Pod_1_ZN_1_FLR_1 Sys-3 Flr-1 Sch-D HPlcmt-south ZN NECB System 3 PSZ Occ Sch Thursda\n   **   ~~~   ** Will be processed as Alpha=SP-CORNER_CLASS_1_POD_1_ZN_1_FLR_1 SYS-3 FLR-1 SCH-D HPLCMT-SOUTH ZN NECB SYSTEM 3 PSZ OCC SCH THURSDAY\n   ************* IDF Context for following error/warning message:\n   ************* Note -- lines truncated at 300 characters, if necessary...\n   *************   1858 Schedule:Week:Daily,\n   ************* indicated Name=Schedule:Week:Daily {6c07e131-69ed-4fb4-9ece-22194bac3974}\n   ************* Only last 7 lines before error line shown.....\n   *************   1859   Schedule:Week:Daily {6c07e131-69ed-4fb4-9ece-22194bac3974}, !- Name\n   *************   1860   Sp-Corner_Class_1_Pod_1_ZN_1_FLR_1 Sys-3 Flr-1 Sch-D HPlcmt-south ZN NECB System 3 PSZ Occ Sch Sunday, !- Sunday Schedule:Day Name\n   *************   1861   Sp-Corner_Class_1_Pod_1_ZN_1_FLR_1 Sys-3 Flr-1 Sch-D HPlcmt-south ZN NECB System 3 PSZ Occ Sch Monday, !- Monday Schedule:Day Name\n   *************   1862   Sp-Corner_Class_1_Pod_1_ZN_1_FLR_1 Sys-3 Flr-1 Sch-D HPlcmt-south ZN NECB System 3 PSZ Occ Sch Tuesday, !- Tuesday Schedule:Day Name\n   *************   1863   Sp-Corner_Class_1_Pod_1_ZN_1_FLR_1 Sys-3 Flr-1 Sch-D HPlcmt-south ZN NECB System 3 PSZ Occ Sch Wednesday, !- Wednesday Schedule:Day Name\n   *************   1864   Sp-Corner_Class_1_Pod_1_ZN_1_FLR_1 Sys-3 Flr-1 Sch-D HPlcmt-south ZN NECB System 3 PSZ Occ Sch Thursday, !- Thursday Schedule:Day Name\n   *************   1865   Sp-Corner_Class_1_Pod_1_ZN_1_FLR_1 Sys-3 Flr-1 Sch-D HPlcmt-south ZN NECB System 3 PSZ Occ Sch Friday, !- Friday Schedule:Day Name\n   ** Warning ** IP: IDF line~1865 Alpha Argument length exceeds maximum, will be truncated=  Sp-Corner_Class_1_Pod_1_ZN_1_FLR_1 Sys-3 Flr-1 Sch-D HPlcmt-south ZN NECB System 3 PSZ Occ Sch Frida\n   **   ~~~   ** Will be processed as Alpha=SP-CORNER_CLASS_1_POD_1_ZN_1_FLR_1 SYS-3 FLR-1 SCH-D HPLCMT-SOUTH ZN NECB SYSTEM 3 PSZ OCC SCH FRIDAY\n   ************* IDF Context for following error/warning message:\n   ************* Note -- lines truncated at 300 characters, if necessary...\n   *************   1858 Schedule:Week:Daily,\n   ************* indicated Name=Schedule:Week:Daily {6c07e131-69ed-4fb4-9ece-22194bac3974}\n   ************* Only last 8 lines before error line shown.....\n   *************   1859   Schedule:Week:Daily {6c07e131-69ed-4fb4-9ece-22194bac3974}, !- Name\n   *************   1860   Sp-Corner_Class_1_Pod_1_ZN_1_FLR_1 Sys-3 Flr-1 Sch-D HPlcmt-south ZN NECB System 3 PSZ Occ Sch Sunday, !- Sunday Schedule:Day Name\n   *************   1861   Sp-Corner_Class_1_Pod_1_ZN_1_FLR_1 Sys-3 Flr-1 Sch-D HPlcmt-south ZN NECB System 3 PSZ Occ Sch Monday, !- Monday Schedule:Day Name\n   *************   1862   Sp-Corner_Class_1_Pod_1_ZN_1_FLR_1 Sys-3 Flr-1 Sch-D HPlcmt-south ZN NECB System 3 PSZ Occ Sch Tuesday, !- Tuesday Schedule:Day Name\n   *************   1863   Sp-Corner_Class_1_Pod_1_ZN_1_FLR_1 Sys-3 Flr-1 Sch-D HPlcmt-south ZN NECB System 3 PSZ Occ Sch Wednesday, !- Wednesday Schedule:Day Name\n   *************   1864   Sp-Corner_Class_1_Pod_1_ZN_1_FLR_1 Sys-3 Flr-1 Sch-D HPlcmt-south ZN NECB System 3 PSZ Occ Sch Thursday, !- Thursday Schedule:Day Name\n   *************   1865   Sp-Corner_Class_1_Pod_1_ZN_1_FLR_1 Sys-3 Flr-1 Sch-D HPlcmt-south ZN NECB System 3 PSZ Occ Sch Friday, !- Friday Schedule:Day Name\n   *************   1866   Sp-Corner_Class_1_Pod_1_ZN_1_FLR_1 Sys-3 Flr-1 Sch-D HPlcmt-south ZN NECB System 3 PSZ Occ Sch Saturday, !- Saturday Schedule:Day Name\n   ** Warning ** IP: IDF line~1866 Alpha Argument length exceeds maximum, will be truncated=  Sp-Corner_Class_1_Pod_1_ZN_1_FLR_1 Sys-3 Flr-1 Sch-D HPlcmt-south ZN NECB System 3 PSZ Occ Sch Saturda\n   **   ~~~   ** Will be processed as Alpha=SP-CORNER_CLASS_1_POD_1_ZN_1_FLR_1 SYS-3 FLR-1 SCH-D HPLCMT-SOUTH ZN NECB SYSTEM 3 PSZ OCC SCH SATURDAY\n   ************* IDF Context for following error/warning message:\n   ************* Note -- lines truncated at 300 characters, if necessary...\n   *************   1858 Schedule:Week:Daily,\n   ************* indicated Name=Schedule:Week:Daily {6c07e131-69ed-4fb4-9ece-22194bac3974}\n   ************* Only last 9 lines before error line shown.....\n   *************   1859   Schedule:Week:Daily {6c07e131-69ed-4fb4-9ece-22194bac3974}, !- Name\n   *************   1860   Sp-Corner_Class_1_Pod_1_ZN_1_FLR_1 Sys-3 Flr-1 Sch-D HPlcmt-south ZN NECB System 3 PSZ Occ Sch Sunday, !- Sunday Schedule:Day Name\n   *************   1861   Sp-Corner_Class_1_Pod_1_ZN_1_FLR_1 Sys-3 Flr-1 Sch-D HPlcmt-south ZN NECB System 3 PSZ Occ Sch Monday, !- Monday Schedule:Day Name\n   *************   1862   Sp-Corner_Class_1_Pod_1_ZN_1_FLR_1 Sys-3 Flr-1 Sch-D HPlcmt-south ZN NECB System 3 PSZ Occ Sch Tuesday, !- Tuesday Schedule:Day Name\n   *************   1863   Sp-Corner_Class_1_Pod_1_ZN_1_FLR_1 Sys-3 Flr-1 Sch-D HPlcmt-south ZN NECB System 3 PSZ Occ Sch Wednesday, !- Wednesday Schedule:Day Name\n   *************   1864   Sp-Corner_Class_1_Pod_1_ZN_1_FLR_1 Sys-3 Flr-1 Sch-D HPlcmt-south ZN NECB System 3 PSZ Occ Sch Thursday, !- Thursday Schedule:Day Name\n   *************   1865   Sp-Corner_Class_1_Pod_1_ZN_1_FLR_1 Sys-3 Flr-1 Sch-D HPlcmt-south ZN NECB System 3 PSZ Occ Sch Friday, !- Friday Schedule:Day Name\n   *************   1866   Sp-Corner_Class_1_Pod_1_ZN_1_FLR_1 Sys-3 Flr-1 Sch-D HPlcmt-south ZN NECB System 3 PSZ Occ Sch Saturday, !- Saturday Schedule:Day Name\n   *************   1867   Sp-Corner_Class_1_Pod_1_ZN_1_FLR_1 Sys-3 Flr-1 Sch-D HPlcmt-south ZN NECB System 3 PSZ Occ Sch Default, !- Holiday Schedule:Day Name\n   ** Warning ** IP: IDF line~1867 Alpha Argument length exceeds maximum, will be truncated=  Sp-Corner_Class_1_Pod_1_ZN_1_FLR_1 Sys-3 Flr-1 Sch-D HPlcmt-south ZN NECB System 3 PSZ Occ Sch Defaul\n   **   ~~~   ** Will be processed as Alpha=SP-CORNER_CLASS_1_POD_1_ZN_1_FLR_1 SYS-3 FLR-1 SCH-D HPLCMT-SOUTH ZN NECB SYSTEM 3 PSZ OCC SCH DEFAULT\n   ************* IDF Context for following error/warning message:\n   ************* Note -- lines truncated at 300 characters, if necessary...\n   *************   1858 Schedule:Week:Daily,\n   ************* indicated Name=Schedule:Week:Daily {6c07e131-69ed-4fb4-9ece-22194bac3974}\n   ************* Only last 10 lines before error line shown.....\n   *************   1859   Schedule:Week:Daily {6c07e131-69ed-4fb4-9ece-22194bac3974}, !- Name\n   *************   1860   Sp-Corner_Class_1_Pod_1_ZN_1_FLR_1 Sys-3 Flr-1 Sch-D HPlcmt-south ZN NECB System 3 PSZ Occ Sch Sunday, !- Sunday Schedule:Day Name\n   *************   1861   Sp-Corner_Class_1_Pod_1_ZN_1_FLR_1 Sys-3 Flr-1 Sch-D HPlcmt-south ZN NECB System 3 PSZ Occ Sch Monday, !- Monday Schedule:Day Name\n   *************   1862   Sp-Corner_Class_1_Pod_1_ZN_1_FLR_1 Sys-3 Flr-1 Sch-D HPlcmt-south ZN NECB System 3 PSZ Occ Sch Tuesday, !- Tuesday Schedule:Day Name\n   *************   1863   Sp-Corner_Class_1_Pod_1_ZN_1_FLR_1 Sys-3 Flr-1 Sch-D HPlcmt-south ZN NECB System 3 PSZ Occ Sch Wednesday, !- Wednesday Schedule:Day Name\n   *************   1864   Sp-Corner_Class_1_Pod_1_ZN_1_FLR_1 Sys-3 Flr-1 Sch-D HPlcmt-south ZN NECB System 3 PSZ Occ Sch Thursday, !- Thursday Schedule:Day Name\n   *************   1865   Sp-Corner_Class_1_Pod_1_ZN_1_FLR_1 Sys-3 Flr-1 Sch-D HPlcmt-south ZN NECB System 3 PSZ Occ Sch Friday, !- Friday Schedule:Day Name\n   *************   1866   Sp-Corner_Class_1_Pod_1_ZN_1_FLR_1 Sys-3 Flr-1 Sch-D HPlcmt-south ZN NECB System 3 PSZ Occ Sch Saturday, !- Saturday Schedule:Day Name\n   *************   1867   Sp-Corner_Class_1_Pod_1_ZN_1_FLR_1 Sys-3 Flr-1 Sch-D HPlcmt-south ZN NECB System 3 PSZ Occ Sch Default, !- Holiday Schedule:Day Name\n   *************   1868   Sp-Corner_Class_1_Pod_1_ZN_1_FLR_1 Sys-3 Flr-1 Sch-D HPlcmt-south ZN NECB System 3 PSZ Occ Sch Summer Design Day, !- SummerDesignDay Schedule:Day Name\n   ** Warning ** IP: IDF line~1868 Alpha Argument length exceeds maximum, will be truncated=  Sp-Corner_Class_1_Pod_1_ZN_1_FLR_1 Sys-3 Flr-1 Sch-D HPlcmt-south ZN NECB System 3 PSZ Occ Sch Summer Design Da\n   **   ~~~   ** Will be processed as Alpha=SP-CORNER_CLASS_1_POD_1_ZN_1_FLR_1 SYS-3 FLR-1 SCH-D HPLCMT-SOUTH ZN NECB SYSTEM 3 PSZ OCC SCH SUMMER DESIGN DAY\n   ************* IDF Context for following error/warning message:\n   ************* Note -- lines truncated at 300 characters, if necessary...\n   *************   1858 Schedule:Week:Daily,\n   ************* indicated Name=Schedule:Week:Daily {6c07e131-69ed-4fb4-9ece-22194bac3974}\n   ************* Only last 10 lines before error line shown.....\n   *************   1860   Sp-Corner_Class_1_Pod_1_ZN_1_FLR_1 Sys-3 Flr-1 Sch-D HPlcmt-south ZN NECB System 3 PSZ Occ Sch Sunday, !- Sunday Schedule:Day Name\n   *************   1861   Sp-Corner_Class_1_Pod_1_ZN_1_FLR_1 Sys-3 Flr-1 Sch-D HPlcmt-south ZN NECB System 3 PSZ Occ Sch Monday, !- Monday Schedule:Day Name\n   *************   1862   Sp-Corner_Class_1_Pod_1_ZN_1_FLR_1 Sys-3 Flr-1 Sch-D HPlcmt-south ZN NECB System 3 PSZ Occ Sch Tuesday, !- Tuesday Schedule:Day Name\n   *************   1863   Sp-Corner_Class_1_Pod_1_ZN_1_FLR_1 Sys-3 Flr-1 Sch-D HPlcmt-south ZN NECB System 3 PSZ Occ Sch Wednesday, !- Wednesday Schedule:Day Name\n   *************   1864   Sp-Corner_Class_1_Pod_1_ZN_1_FLR_1 Sys-3 Flr-1 Sch-D HPlcmt-south ZN NECB System 3 PSZ Occ Sch Thursday, !- Thursday Schedule:Day Name\n   *************   1865   Sp-Corner_Class_1_Pod_1_ZN_1_FLR_1 Sys-3 Flr-1 Sch-D HPlcmt-south ZN NECB System 3 PSZ Occ Sch Friday, !- Friday Schedule:Day Name\n   *************   1866   Sp-Corner_Class_1_Pod_1_ZN_1_FLR_1 Sys-3 Flr-1 Sch-D HPlcmt-south ZN NECB System 3 PSZ Occ Sch Saturday, !- Saturday Schedule:Day Name\n   *************   1867   Sp-Corner_Class_1_Pod_1_ZN_1_FLR_1 Sys-3 Flr-1 Sch-D HPlcmt-south ZN NECB System 3 PSZ Occ Sch Default, !- Holiday Schedule:Day Name\n   *************   1868   Sp-Corner_Class_1_Pod_1_ZN_1_FLR_1 Sys-3 Flr-1 Sch-D HPlcmt-south ZN NECB System 3 PSZ Occ Sch Summer Design Day, !- SummerDesignDay Schedule:Day Name\n   *************   1869   Sp-Corner_Class_1_Pod_1_ZN_1_FLR_1 Sys-3 Flr-1 Sch-D HPlcmt-south ZN NECB System 3 PSZ Occ Sch Winter Design Day, !- WinterDesignDay Schedule:Day Name\n   ** Warning ** IP: IDF line~1869 Alpha Argument length exceeds maximum, will be truncated=  Sp-Corner_Class_1_Pod_1_ZN_1_FLR_1 Sys-3 Flr-1 Sch-D HPlcmt-south ZN NECB System 3 PSZ Occ Sch Winter Design Da\n   **   ~~~   ** Will be processed as Alpha=SP-CORNER_CLASS_1_POD_1_ZN_1_FLR_1 SYS-3 FLR-1 SCH-D HPLCMT-SOUTH ZN NECB SYSTEM 3 PSZ OCC SCH WINTER DESIGN DAY\n   ************* IDF Context for following error/warning message:\n   ************* Note -- lines truncated at 300 characters, if necessary...\n   *************   1858 Schedule:Week:Daily,\n   ************* indicated Name=Schedule:Week:Daily {6c07e131-69ed-4fb4-9ece-22194bac3974}\n   ************* Only last 10 lines before error line shown.....\n   *************   1861   Sp-Corner_Class_1_Pod_1_ZN_1_FLR_1 Sys-3 Flr-1 Sch-D HPlcmt-south ZN NECB System 3 PSZ Occ Sch Monday, !- Monday Schedule:Day Name\n   *************   1862   Sp-Corner_Class_1_Pod_1_ZN_1_FLR_1 Sys-3 Flr-1 Sch-D HPlcmt-south ZN NECB System 3 PSZ Occ Sch Tuesday, !- Tuesday Schedule:Day Name\n   *************   1863   Sp-Corner_Class_1_Pod_1_ZN_1_FLR_1 Sys-3 Flr-1 Sch-D HPlcmt-south ZN NECB System 3 PSZ Occ Sch Wednesday, !- Wednesday Schedule:Day Name\n   *************   1864   Sp-Corner_Class_1_Pod_1_ZN_1_FLR_1 Sys-3 Flr-1 Sch-D HPlcmt-south ZN NECB System 3 PSZ Occ Sch Thursday, !- Thursday Schedule:Day Name\n   *************   1865   Sp-Corner_Class_1_Pod_1_ZN_1_FLR_1 Sys-3 Flr-1 Sch-D HPlcmt-south ZN NECB System 3 PSZ Occ Sch Friday, !- Friday Schedule:Day Name\n   *************   1866   Sp-Corner_Class_1_Pod_1_ZN_1_FLR_1 Sys-3 Flr-1 Sch-D HPlcmt-south ZN NECB System 3 PSZ Occ Sch Saturday, !- Saturday Schedule:Day Name\n   *************   1867   Sp-Corner_Class_1_Pod_1_ZN_1_FLR_1 Sys-3 Flr-1 Sch-D HPlcmt-south ZN NECB System 3 PSZ Occ Sch Default, !- Holiday Schedule:Day Name\n   *************   1868   Sp-Corner_Class_1_Pod_1_ZN_1_FLR_1 Sys-3 Flr-1 Sch-D HPlcmt-south ZN NECB System 3 PSZ Occ Sch Summer Design Day, !- SummerDesignDay Schedule:Day Name\n   *************   1869   Sp-Corner_Class_1_Pod_1_ZN_1_FLR_1 Sys-3 Flr-1 Sch-D HPlcmt-south ZN NECB System 3 PSZ Occ Sch Winter Design Day, !- WinterDesignDay Schedule:Day Name\n   *************   1870   Sp-Corner_Class_1_Pod_1_ZN_1_FLR_1 Sys-3 Flr-1 Sch-D HPlcmt-south ZN NECB System 3 PSZ Occ Sch Default, !- CustomDay1 Schedule:Day Name\n   ** Warning ** IP: IDF line~1870 Alpha Argument length exceeds maximum, will be truncated=  Sp-Corner_Class_1_Pod_1_ZN_1_FLR_1 Sys-3 Flr-1 Sch-D HPlcmt-south ZN NECB System 3 PSZ Occ Sch Defaul\n   **   ~~~   ** Will be processed as Alpha=SP-CORNER_CLASS_1_POD_1_ZN_1_FLR_1 SYS-3 FLR-1 SCH-D HPLCMT-SOUTH ZN NECB SYSTEM 3 PSZ OCC SCH DEFAULT\n   ************* IDF Context for following error/warning message:\n   ************* Note -- lines truncated at 300 characters, if necessary...\n   *************   1858 Schedule:Week:Daily,\n   ************* indicated Name=Schedule:Week:Daily {6c07e131-69ed-4fb4-9ece-22194bac3974}\n   ************* Only last 10 lines before error line shown.....\n   *************   1862   Sp-Corner_Class_1_Pod_1_ZN_1_FLR_1 Sys-3 Flr-1 Sch-D HPlcmt-south ZN NECB System 3 PSZ Occ Sch Tuesday, !- Tuesday Schedule:Day Name\n   *************   1863   Sp-Corner_Class_1_Pod_1_ZN_1_FLR_1 Sys-3 Flr-1 Sch-D HPlcmt-south ZN NECB System 3 PSZ Occ Sch Wednesday, !- Wednesday Schedule:Day Name\n   *************   1864   Sp-Corner_Class_1_Pod_1_ZN_1_FLR_1 Sys-3 Flr-1 Sch-D HPlcmt-south ZN NECB System 3 PSZ Occ Sch Thursday, !- Thursday Schedule:Day Name\n   *************   1865   Sp-Corner_Class_1_Pod_1_ZN_1_FLR_1 Sys-3 Flr-1 Sch-D HPlcmt-south ZN NECB System 3 PSZ Occ Sch Friday, !- Friday Schedule:Day Name\n   *************   1866   Sp-Corner_Class_1_Pod_1_ZN_1_FLR_1 Sys-3 Flr-1 Sch-D HPlcmt-south ZN NECB System 3 PSZ Occ Sch Saturday, !- Saturday Schedule:Day Name\n   *************   1867   Sp-Corner_Class_1_Pod_1_ZN_1_FLR_1 Sys-3 Flr-1 Sch-D HPlcmt-south ZN NECB System 3 PSZ Occ Sch Default, !- Holiday Schedule:Day Name\n   *************   1868   Sp-Corner_Class_1_Pod_1_ZN_1_FLR_1 Sys-3 Flr-1 Sch-D HPlcmt-south ZN NECB System 3 PSZ Occ Sch Summer Design Day, !- SummerDesignDay Schedule:Day Name\n   *************   1869   Sp-Corner_Class_1_Pod_1_ZN_1_FLR_1 Sys-3 Flr-1 Sch-D HPlcmt-south ZN NECB System 3 PSZ Occ Sch Winter Design Day, !- WinterDesignDay Schedule:Day Name\n   *************   1870   Sp-Corner_Class_1_Pod_1_ZN_1_FLR_1 Sys-3 Flr-1 Sch-D HPlcmt-south ZN NECB System 3 PSZ Occ Sch Default, !- CustomDay1 Schedule:Day Name\n   *************   1871   Sp-Corner_Class_1_Pod_1_ZN_1_FLR_1 Sys-3 Flr-1 Sch-D HPlcmt-south ZN NECB System 3 PSZ Occ Sch Default; !- CustomDay2 Schedule:Day Name\n   ** Warning ** IP: IDF line~1871 Alpha Argument length exceeds maximum, will be truncated=  Sp-Corner_Class_1_Pod_1_ZN_1_FLR_1 Sys-3 Flr-1 Sch-D HPlcmt-south ZN NECB System 3 PSZ Occ Sch Defaul\n   **   ~~~   ** Will be processed as Alpha=SP-CORNER_CLASS_1_POD_1_ZN_1_FLR_1 SYS-3 FLR-1 SCH-D HPLCMT-SOUTH ZN NECB SYSTEM 3 PSZ OCC SCH DEFAULT\n   ************* IDF Context for following error/warning message:\n   ************* Note -- lines truncated at 300 characters, if necessary...\n   *************   1882 Schedule:Day:Interval,\n   ************* indicated Name=Sp-Corner_Class_1_Pod_1_ZN_1_FLR_1 Sys-3 Flr-1 Sch-D HPlcmt-south ZN NECB System 3 PSZ Occ Sch Default\n   ************* Only last 1 lines before error line shown.....\n   *************   1883   Sp-Corner_Class_1_Pod_1_ZN_1_FLR_1 Sys-3 Flr-1 Sch-D HPlcmt-south ZN NECB System 3 PSZ Occ Sch Default, !- Name\n   ** Warning ** IP: IDF line~1883 Alpha Argument length exceeds maximum, will be truncated=  Sp-Corner_Class_1_Pod_1_ZN_1_FLR_1 Sys-3 Flr-1 Sch-D HPlcmt-south ZN NECB System 3 PSZ Occ Sch Defaul\n   **   ~~~   ** Will be processed as Alpha=SP-CORNER_CLASS_1_POD_1_ZN_1_FLR_1 SYS-3 FLR-1 SCH-D HPLCMT-SOUTH ZN NECB SYSTEM 3 PSZ OCC SCH DEFAULT\n   ************* IDF Context for following error/warning message:\n   ************* Note -- lines truncated at 300 characters, if necessary...\n   *************   1889 Schedule:Day:Interval,\n   ************* indicated Name=Sp-Corner_Class_1_Pod_1_ZN_1_FLR_1 Sys-3 Flr-1 Sch-D HPlcmt-south ZN NECB System 3 PSZ Occ Sch Summer Design Day\n   ************* Only last 1 lines before error line shown.....\n   *************   1890   Sp-Corner_Class_1_Pod_1_ZN_1_FLR_1 Sys-3 Flr-1 Sch-D HPlcmt-south ZN NECB System 3 PSZ Occ Sch Summer Design Day, !- Name\n   ** Warning ** IP: IDF line~1890 Alpha Argument length exceeds maximum, will be truncated=  Sp-Corner_Class_1_Pod_1_ZN_1_FLR_1 Sys-3 Flr-1 Sch-D HPlcmt-south ZN NECB System 3 PSZ Occ Sch Summer Design Da\n   **   ~~~   ** Will be processed as Alpha=SP-CORNER_CLASS_1_POD_1_ZN_1_FLR_1 SYS-3 FLR-1 SCH-D HPLCMT-SOUTH ZN NECB SYSTEM 3 PSZ OCC SCH SUMMER DESIGN DAY\n   ************* IDF Context for following error/warning message:\n   ************* Note -- lines truncated at 300 characters, if necessary...\n   *************   1896 Schedule:Day:Interval,\n   ************* indicated Name=Sp-Corner_Class_1_Pod_1_ZN_1_FLR_1 Sys-3 Flr-1 Sch-D HPlcmt-south ZN NECB System 3 PSZ Occ Sch Winter Design Day\n   ************* Only last 1 lines before error line shown.....\n   *************   1897   Sp-Corner_Class_1_Pod_1_ZN_1_FLR_1 Sys-3 Flr-1 Sch-D HPlcmt-south ZN NECB System 3 PSZ Occ Sch Winter Design Day, !- Name\n   ** Warning ** IP: IDF line~1897 Alpha Argument length exceeds maximum, will be truncated=  Sp-Corner_Class_1_Pod_1_ZN_1_FLR_1 Sys-3 Flr-1 Sch-D HPlcmt-south ZN NECB System 3 PSZ Occ Sch Winter Design Da\n   **   ~~~   ** Will be processed as Alpha=SP-CORNER_CLASS_1_POD_1_ZN_1_FLR_1 SYS-3 FLR-1 SCH-D HPLCMT-SOUTH ZN NECB SYSTEM 3 PSZ OCC SCH WINTER DESIGN DAY\n   ************* IDF Context for following error/warning message:\n   ************* Note -- lines truncated at 300 characters, if necessary...\n   *************   2169 Schedule:Day:Interval,\n   ************* indicated Name=Sp-Corner_Class_1_Pod_2_ZN_1_FLR_1 Sys-3 Flr-1 Sch-D HPlcmt-south ZN NECB System 3 PSZ Occ Sch Sunday\n   ************* Only last 1 lines before error line shown.....\n   *************   2170   Sp-Corner_Class_1_Pod_2_ZN_1_FLR_1 Sys-3 Flr-1 Sch-D HPlcmt-south ZN NECB System 3 PSZ Occ Sch Sunday, !- Name\n   ** Warning ** IP: IDF line~2170 Alpha Argument length exceeds maximum, will be truncated=  Sp-Corner_Class_1_Pod_2_ZN_1_FLR_1 Sys-3 Flr-1 Sch-D HPlcmt-south ZN NECB System 3 PSZ Occ Sch Sunda\n   **   ~~~   ** Will be processed as Alpha=SP-CORNER_CLASS_1_POD_2_ZN_1_FLR_1 SYS-3 FLR-1 SCH-D HPLCMT-SOUTH ZN NECB SYSTEM 3 PSZ OCC SCH SUNDAY\n   ************* IDF Context for following error/warning message:\n   ************* Note -- lines truncated at 300 characters, if necessary...\n   *************   2176 Schedule:Day:Interval,\n   ************* indicated Name=Sp-Corner_Class_1_Pod_2_ZN_1_FLR_1 Sys-3 Flr-1 Sch-D HPlcmt-south ZN NECB System 3 PSZ Occ Sch Monday\n   ************* Only last 1 lines before error line shown.....\n   *************   2177   Sp-Corner_Class_1_Pod_2_ZN_1_FLR_1 Sys-3 Flr-1 Sch-D HPlcmt-south ZN NECB System 3 PSZ Occ Sch Monday, !- Name\n   ** Warning ** IP: IDF line~2177 Alpha Argument length exceeds maximum, will be truncated=  Sp-Corner_Class_1_Pod_2_ZN_1_FLR_1 Sys-3 Flr-1 Sch-D HPlcmt-south ZN NECB System 3 PSZ Occ Sch Monda\n   **   ~~~   ** Will be processed as Alpha=SP-CORNER_CLASS_1_POD_2_ZN_1_FLR_1 SYS-3 FLR-1 SCH-D HPLCMT-SOUTH ZN NECB SYSTEM 3 PSZ OCC SCH MONDAY\n   ************* IDF Context for following error/warning message:\n   ************* Note -- lines truncated at 300 characters, if necessary...\n   *************   2191 Schedule:Day:Interval,\n   ************* indicated Name=Sp-Corner_Class_1_Pod_2_ZN_1_FLR_1 Sys-3 Flr-1 Sch-D HPlcmt-south ZN NECB System 3 PSZ Occ Sch Tuesday\n   ************* Only last 1 lines before error line shown.....\n   *************   2192   Sp-Corner_Class_1_Pod_2_ZN_1_FLR_1 Sys-3 Flr-1 Sch-D HPlcmt-south ZN NECB System 3 PSZ Occ Sch Tuesday, !- Name\n   ** Warning ** IP: IDF line~2192 Alpha Argument length exceeds maximum, will be truncated=  Sp-Corner_Class_1_Pod_2_ZN_1_FLR_1 Sys-3 Flr-1 Sch-D HPlcmt-south ZN NECB System 3 PSZ Occ Sch Tuesda\n   **   ~~~   ** Will be processed as Alpha=SP-CORNER_CLASS_1_POD_2_ZN_1_FLR_1 SYS-3 FLR-1 SCH-D HPLCMT-SOUTH ZN NECB SYSTEM 3 PSZ OCC SCH TUESDAY\n   ************* IDF Context for following error/warning message:\n   ************* Note -- lines truncated at 300 characters, if necessary...\n   *************   2206 Schedule:Day:Interval,\n   ************* indicated Name=Sp-Corner_Class_1_Pod_2_ZN_1_FLR_1 Sys-3 Flr-1 Sch-D HPlcmt-south ZN NECB System 3 PSZ Occ Sch Wednesday\n   ************* Only last 1 lines before error line shown.....\n   *************   2207   Sp-Corner_Class_1_Pod_2_ZN_1_FLR_1 Sys-3 Flr-1 Sch-D HPlcmt-south ZN NECB System 3 PSZ Occ Sch Wednesday, !- Name\n   ** Warning ** IP: IDF line~2207 Alpha Argument length exceeds maximum, will be truncated=  Sp-Corner_Class_1_Pod_2_ZN_1_FLR_1 Sys-3 Flr-1 Sch-D HPlcmt-south ZN NECB System 3 PSZ Occ Sch Wednesda\n   **   ~~~   ** Will be processed as Alpha=SP-CORNER_CLASS_1_POD_2_ZN_1_FLR_1 SYS-3 FLR-1 SCH-D HPLCMT-SOUTH ZN NECB SYSTEM 3 PSZ OCC SCH WEDNESDAY\n   ************* IDF Context for following error/warning message:\n   ************* Note -- lines truncated at 300 characters, if necessary...\n   *************   2221 Schedule:Day:Interval,\n   ************* indicated Name=Sp-Corner_Class_1_Pod_2_ZN_1_FLR_1 Sys-3 Flr-1 Sch-D HPlcmt-south ZN NECB System 3 PSZ Occ Sch Thursday\n   ************* Only last 1 lines before error line shown.....\n   *************   2222   Sp-Corner_Class_1_Pod_2_ZN_1_FLR_1 Sys-3 Flr-1 Sch-D HPlcmt-south ZN NECB System 3 PSZ Occ Sch Thursday, !- Name\n   ** Warning ** IP: IDF line~2222 Alpha Argument length exceeds maximum, will be truncated=  Sp-Corner_Class_1_Pod_2_ZN_1_FLR_1 Sys-3 Flr-1 Sch-D HPlcmt-south ZN NECB System 3 PSZ Occ Sch Thursda\n   **   ~~~   ** Will be processed as Alpha=SP-CORNER_CLASS_1_POD_2_ZN_1_FLR_1 SYS-3 FLR-1 SCH-D HPLCMT-SOUTH ZN NECB SYSTEM 3 PSZ OCC SCH THURSDAY\n   ************* IDF Context for following error/warning message:\n   ************* Note -- lines truncated at 300 characters, if necessary...\n   *************   2236 Schedule:Day:Interval,\n   ************* indicated Name=Sp-Corner_Class_1_Pod_2_ZN_1_FLR_1 Sys-3 Flr-1 Sch-D HPlcmt-south ZN NECB System 3 PSZ Occ Sch Friday\n   ************* Only last 1 lines before error line shown.....\n   *************   2237   Sp-Corner_Class_1_Pod_2_ZN_1_FLR_1 Sys-3 Flr-1 Sch-D HPlcmt-south ZN NECB System 3 PSZ Occ Sch Friday, !- Name\n   ** Warning ** IP: IDF line~2237 Alpha Argument length exceeds maximum, will be truncated=  Sp-Corner_Class_1_Pod_2_ZN_1_FLR_1 Sys-3 Flr-1 Sch-D HPlcmt-south ZN NECB System 3 PSZ Occ Sch Frida\n   **   ~~~   ** Will be processed as Alpha=SP-CORNER_CLASS_1_POD_2_ZN_1_FLR_1 SYS-3 FLR-1 SCH-D HPLCMT-SOUTH ZN NECB SYSTEM 3 PSZ OCC SCH FRIDAY\n   ************* IDF Context for following error/warning message:\n   ************* Note -- lines truncated at 300 characters, if necessary...\n   *************   2251 Schedule:Day:Interval,\n   ************* indicated Name=Sp-Corner_Class_1_Pod_2_ZN_1_FLR_1 Sys-3 Flr-1 Sch-D HPlcmt-south ZN NECB System 3 PSZ Occ Sch Saturday\n   ************* Only last 1 lines before error line shown.....\n   *************   2252   Sp-Corner_Class_1_Pod_2_ZN_1_FLR_1 Sys-3 Flr-1 Sch-D HPlcmt-south ZN NECB System 3 PSZ Occ Sch Saturday, !- Name\n   ** Warning ** IP: IDF line~2252 Alpha Argument length exceeds maximum, will be truncated=  Sp-Corner_Class_1_Pod_2_ZN_1_FLR_1 Sys-3 Flr-1 Sch-D HPlcmt-south ZN NECB System 3 PSZ Occ Sch Saturda\n   **   ~~~   ** Will be processed as Alpha=SP-CORNER_CLASS_1_POD_2_ZN_1_FLR_1 SYS-3 FLR-1 SCH-D HPLCMT-SOUTH ZN NECB SYSTEM 3 PSZ OCC SCH SATURDAY\n   ************* IDF Context for following error/warning message:\n   ************* Note -- lines truncated at 300 characters, if necessary...\n   *************   2258 Schedule:Week:Daily,\n   ************* indicated Name=Schedule:Week:Daily {f73b031b-0896-4e90-8b44-acaf3e9c0892}\n   ************* Only last 2 lines before error line shown.....\n   *************   2259   Schedule:Week:Daily {f73b031b-0896-4e90-8b44-acaf3e9c0892}, !- Name\n   *************   2260   Sp-Corner_Class_1_Pod_2_ZN_1_FLR_1 Sys-3 Flr-1 Sch-D HPlcmt-south ZN NECB System 3 PSZ Occ Sch Sunday, !- Sunday Schedule:Day Name\n   ** Warning ** IP: IDF line~2260 Alpha Argument length exceeds maximum, will be truncated=  Sp-Corner_Class_1_Pod_2_ZN_1_FLR_1 Sys-3 Flr-1 Sch-D HPlcmt-south ZN NECB System 3 PSZ Occ Sch Sunda\n   **   ~~~   ** Will be processed as Alpha=SP-CORNER_CLASS_1_POD_2_ZN_1_FLR_1 SYS-3 FLR-1 SCH-D HPLCMT-SOUTH ZN NECB SYSTEM 3 PSZ OCC SCH SUNDAY\n   ************* IDF Context for following error/warning message:\n   ************* Note -- lines truncated at 300 characters, if necessary...\n   *************   2258 Schedule:Week:Daily,\n   ************* indicated Name=Schedule:Week:Daily {f73b031b-0896-4e90-8b44-acaf3e9c0892}\n   ************* Only last 3 lines before error line shown.....\n   *************   2259   Schedule:Week:Daily {f73b031b-0896-4e90-8b44-acaf3e9c0892}, !- Name\n   *************   2260   Sp-Corner_Class_1_Pod_2_ZN_1_FLR_1 Sys-3 Flr-1 Sch-D HPlcmt-south ZN NECB System 3 PSZ Occ Sch Sunday, !- Sunday Schedule:Day Name\n   *************   2261   Sp-Corner_Class_1_Pod_2_ZN_1_FLR_1 Sys-3 Flr-1 Sch-D HPlcmt-south ZN NECB System 3 PSZ Occ Sch Monday, !- Monday Schedule:Day Name\n   ** Warning ** IP: IDF line~2261 Alpha Argument length exceeds maximum, will be truncated=  Sp-Corner_Class_1_Pod_2_ZN_1_FLR_1 Sys-3 Flr-1 Sch-D HPlcmt-south ZN NECB System 3 PSZ Occ Sch Monda\n   **   ~~~   ** Will be processed as Alpha=SP-CORNER_CLASS_1_POD_2_ZN_1_FLR_1 SYS-3 FLR-1 SCH-D HPLCMT-SOUTH ZN NECB SYSTEM 3 PSZ OCC SCH MONDAY\n   ************* IDF Context for following error/warning message:\n   ************* Note -- lines truncated at 300 characters, if necessary...\n   *************   2258 Schedule:Week:Daily,\n   ************* indicated Name=Schedule:Week:Daily {f73b031b-0896-4e90-8b44-acaf3e9c0892}\n   ************* Only last 4 lines before error line shown.....\n   *************   2259   Schedule:Week:Daily {f73b031b-0896-4e90-8b44-acaf3e9c0892}, !- Name\n   *************   2260   Sp-Corner_Class_1_Pod_2_ZN_1_FLR_1 Sys-3 Flr-1 Sch-D HPlcmt-south ZN NECB System 3 PSZ Occ Sch Sunday, !- Sunday Schedule:Day Name\n   *************   2261   Sp-Corner_Class_1_Pod_2_ZN_1_FLR_1 Sys-3 Flr-1 Sch-D HPlcmt-south ZN NECB System 3 PSZ Occ Sch Monday, !- Monday Schedule:Day Name\n   *************   2262   Sp-Corner_Class_1_Pod_2_ZN_1_FLR_1 Sys-3 Flr-1 Sch-D HPlcmt-south ZN NECB System 3 PSZ Occ Sch Tuesday, !- Tuesday Schedule:Day Name\n   ** Warning ** IP: IDF line~2262 Alpha Argument length exceeds maximum, will be truncated=  Sp-Corner_Class_1_Pod_2_ZN_1_FLR_1 Sys-3 Flr-1 Sch-D HPlcmt-south ZN NECB System 3 PSZ Occ Sch Tuesda\n   **   ~~~   ** Will be processed as Alpha=SP-CORNER_CLASS_1_POD_2_ZN_1_FLR_1 SYS-3 FLR-1 SCH-D HPLCMT-SOUTH ZN NECB SYSTEM 3 PSZ OCC SCH TUESDAY\n   ************* IDF Context for following error/warning message:\n   ************* Note -- lines truncated at 300 characters, if necessary...\n   *************   2258 Schedule:Week:Daily,\n   ************* indicated Name=Schedule:Week:Daily {f73b031b-0896-4e90-8b44-acaf3e9c0892}\n   ************* Only last 5 lines before error line shown.....\n   *************   2259   Schedule:Week:Daily {f73b031b-0896-4e90-8b44-acaf3e9c0892}, !- Name\n   *************   2260   Sp-Corner_Class_1_Pod_2_ZN_1_FLR_1 Sys-3 Flr-1 Sch-D HPlcmt-south ZN NECB System 3 PSZ Occ Sch Sunday, !- Sunday Schedule:Day Name\n   *************   2261   Sp-Corner_Class_1_Pod_2_ZN_1_FLR_1 Sys-3 Flr-1 Sch-D HPlcmt-south ZN NECB System 3 PSZ Occ Sch Monday, !- Monday Schedule:Day Name\n   *************   2262   Sp-Corner_Class_1_Pod_2_ZN_1_FLR_1 Sys-3 Flr-1 Sch-D HPlcmt-south ZN NECB System 3 PSZ Occ Sch Tuesday, !- Tuesday Schedule:Day Name\n   *************   2263   Sp-Corner_Class_1_Pod_2_ZN_1_FLR_1 Sys-3 Flr-1 Sch-D HPlcmt-south ZN NECB System 3 PSZ Occ Sch Wednesday, !- Wednesday Schedule:Day Name\n   ** Warning ** IP: IDF line~2263 Alpha Argument length exceeds maximum, will be truncated=  Sp-Corner_Class_1_Pod_2_ZN_1_FLR_1 Sys-3 Flr-1 Sch-D HPlcmt-south ZN NECB System 3 PSZ Occ Sch Wednesda\n   **   ~~~   ** Will be processed as Alpha=SP-CORNER_CLASS_1_POD_2_ZN_1_FLR_1 SYS-3 FLR-1 SCH-D HPLCMT-SOUTH ZN NECB SYSTEM 3 PSZ OCC SCH WEDNESDAY\n   ************* IDF Context for following error/warning message:\n   ************* Note -- lines truncated at 300 characters, if necessary...\n   *************   2258 Schedule:Week:Daily,\n   ************* indicated Name=Schedule:Week:Daily {f73b031b-0896-4e90-8b44-acaf3e9c0892}\n   ************* Only last 6 lines before error line shown.....\n   *************   2259   Schedule:Week:Daily {f73b031b-0896-4e90-8b44-acaf3e9c0892}, !- Name\n   *************   2260   Sp-Corner_Class_1_Pod_2_ZN_1_FLR_1 Sys-3 Flr-1 Sch-D HPlcmt-south ZN NECB System 3 PSZ Occ Sch Sunday, !- Sunday Schedule:Day Name\n   *************   2261   Sp-Corner_Class_1_Pod_2_ZN_1_FLR_1 Sys-3 Flr-1 Sch-D HPlcmt-south ZN NECB System 3 PSZ Occ Sch Monday, !- Monday Schedule:Day Name\n   *************   2262   Sp-Corner_Class_1_Pod_2_ZN_1_FLR_1 Sys-3 Flr-1 Sch-D HPlcmt-south ZN NECB System 3 PSZ Occ Sch Tuesday, !- Tuesday Schedule:Day Name\n   *************   2263   Sp-Corner_Class_1_Pod_2_ZN_1_FLR_1 Sys-3 Flr-1 Sch-D HPlcmt-south ZN NECB System 3 PSZ Occ Sch Wednesday, !- Wednesday Schedule:Day Name\n   *************   2264   Sp-Corner_Class_1_Pod_2_ZN_1_FLR_1 Sys-3 Flr-1 Sch-D HPlcmt-south ZN NECB System 3 PSZ Occ Sch Thursday, !- Thursday Schedule:Day Name\n   ** Warning ** IP: IDF line~2264 Alpha Argument length exceeds maximum, will be truncated=  Sp-Corner_Class_1_Pod_2_ZN_1_FLR_1 Sys-3 Flr-1 Sch-D HPlcmt-south ZN NECB System 3 PSZ Occ Sch Thursda\n   **   ~~~   ** Will be processed as Alpha=SP-CORNER_CLASS_1_POD_2_ZN_1_FLR_1 SYS-3 FLR-1 SCH-D HPLCMT-SOUTH ZN NECB SYSTEM 3 PSZ OCC SCH THURSDAY\n   ************* IDF Context for following error/warning message:\n   ************* Note -- lines truncated at 300 characters, if necessary...\n   *************   2258 Schedule:Week:Daily,\n   ************* indicated Name=Schedule:Week:Daily {f73b031b-0896-4e90-8b44-acaf3e9c0892}\n   ************* Only last 7 lines before error line shown.....\n   *************   2259   Schedule:Week:Daily {f73b031b-0896-4e90-8b44-acaf3e9c0892}, !- Name\n   *************   2260   Sp-Corner_Class_1_Pod_2_ZN_1_FLR_1 Sys-3 Flr-1 Sch-D HPlcmt-south ZN NECB System 3 PSZ Occ Sch Sunday, !- Sunday Schedule:Day Name\n   *************   2261   Sp-Corner_Class_1_Pod_2_ZN_1_FLR_1 Sys-3 Flr-1 Sch-D HPlcmt-south ZN NECB System 3 PSZ Occ Sch Monday, !- Monday Schedule:Day Name\n   *************   2262   Sp-Corner_Class_1_Pod_2_ZN_1_FLR_1 Sys-3 Flr-1 Sch-D HPlcmt-south ZN NECB System 3 PSZ Occ Sch Tuesday, !- Tuesday Schedule:Day Name\n   *************   2263   Sp-Corner_Class_1_Pod_2_ZN_1_FLR_1 Sys-3 Flr-1 Sch-D HPlcmt-south ZN NECB System 3 PSZ Occ Sch Wednesday, !- Wednesday Schedule:Day Name\n   *************   2264   Sp-Corner_Class_1_Pod_2_ZN_1_FLR_1 Sys-3 Flr-1 Sch-D HPlcmt-south ZN NECB System 3 PSZ Occ Sch Thursday, !- Thursday Schedule:Day Name\n   *************   2265   Sp-Corner_Class_1_Pod_2_ZN_1_FLR_1 Sys-3 Flr-1 Sch-D HPlcmt-south ZN NECB System 3 PSZ Occ Sch Friday, !- Friday Schedule:Day Name\n   ** Warning ** IP: IDF line~2265 Alpha Argument length exceeds maximum, will be truncated=  Sp-Corner_Class_1_Pod_2_ZN_1_FLR_1 Sys-3 Flr-1 Sch-D HPlcmt-south ZN NECB System 3 PSZ Occ Sch Frida\n   **   ~~~   ** Will be processed as Alpha=SP-CORNER_CLASS_1_POD_2_ZN_1_FLR_1 SYS-3 FLR-1 SCH-D HPLCMT-SOUTH ZN NECB SYSTEM 3 PSZ OCC SCH FRIDAY\n   ************* IDF Context for following error/warning message:\n   ************* Note -- lines truncated at 300 characters, if necessary...\n   *************   2258 Schedule:Week:Daily,\n   ************* indicated Name=Schedule:Week:Daily {f73b031b-0896-4e90-8b44-acaf3e9c0892}\n   ************* Only last 8 lines before error line shown.....\n   *************   2259   Schedule:Week:Daily {f73b031b-0896-4e90-8b44-acaf3e9c0892}, !- Name\n   *************   2260   Sp-Corner_Class_1_Pod_2_ZN_1_FLR_1 Sys-3 Flr-1 Sch-D HPlcmt-south ZN NECB System 3 PSZ Occ Sch Sunday, !- Sunday Schedule:Day Name\n   *************   2261   Sp-Corner_Class_1_Pod_2_ZN_1_FLR_1 Sys-3 Flr-1 Sch-D HPlcmt-south ZN NECB System 3 PSZ Occ Sch Monday, !- Monday Schedule:Day Name\n   *************   2262   Sp-Corner_Class_1_Pod_2_ZN_1_FLR_1 Sys-3 Flr-1 Sch-D HPlcmt-south ZN NECB System 3 PSZ Occ Sch Tuesday, !- Tuesday Schedule:Day Name\n   *************   2263   Sp-Corner_Class_1_Pod_2_ZN_1_FLR_1 Sys-3 Flr-1 Sch-D HPlcmt-south ZN NECB System 3 PSZ Occ Sch Wednesday, !- Wednesday Schedule:Day Name\n   *************   2264   Sp-Corner_Class_1_Pod_2_ZN_1_FLR_1 Sys-3 Flr-1 Sch-D HPlcmt-south ZN NECB System 3 PSZ Occ Sch Thursday, !- Thursday Schedule:Day Name\n   *************   2265   Sp-Corner_Class_1_Pod_2_ZN_1_FLR_1 Sys-3 Flr-1 Sch-D HPlcmt-south ZN NECB System 3 PSZ Occ Sch Friday, !- Friday Schedule:Day Name\n   *************   2266   Sp-Corner_Class_1_Pod_2_ZN_1_FLR_1 Sys-3 Flr-1 Sch-D HPlcmt-south ZN NECB System 3 PSZ Occ Sch Saturday, !- Saturday Schedule:Day Name\n   ** Warning ** IP: IDF line~2266 Alpha Argument length exceeds maximum, will be truncated=  Sp-Corner_Class_1_Pod_2_ZN_1_FLR_1 Sys-3 Flr-1 Sch-D HPlcmt-south ZN NECB System 3 PSZ Occ Sch Saturda\n   **   ~~~   ** Will be processed as Alpha=SP-CORNER_CLASS_1_POD_2_ZN_1_FLR_1 SYS-3 FLR-1 SCH-D HPLCMT-SOUTH ZN NECB SYSTEM 3 PSZ OCC SCH SATURDAY\n   ************* IDF Context for following error/warning message:\n   ************* Note -- lines truncated at 300 characters, if necessary...\n   *************   2258 Schedule:Week:Daily,\n   ************* indicated Name=Schedule:Week:Daily {f73b031b-0896-4e90-8b44-acaf3e9c0892}\n   ************* Only last 9 lines before error line shown.....\n   *************   2259   Schedule:Week:Daily {f73b031b-0896-4e90-8b44-acaf3e9c0892}, !- Name\n   *************   2260   Sp-Corner_Class_1_Pod_2_ZN_1_FLR_1 Sys-3 Flr-1 Sch-D HPlcmt-south ZN NECB System 3 PSZ Occ Sch Sunday, !- Sunday Schedule:Day Name\n   *************   2261   Sp-Corner_Class_1_Pod_2_ZN_1_FLR_1 Sys-3 Flr-1 Sch-D HPlcmt-south ZN NECB System 3 PSZ Occ Sch Monday, !- Monday Schedule:Day Name\n   *************   2262   Sp-Corner_Class_1_Pod_2_ZN_1_FLR_1 Sys-3 Flr-1 Sch-D HPlcmt-south ZN NECB System 3 PSZ Occ Sch Tuesday, !- Tuesday Schedule:Day Name\n   *************   2263   Sp-Corner_Class_1_Pod_2_ZN_1_FLR_1 Sys-3 Flr-1 Sch-D HPlcmt-south ZN NECB System 3 PSZ Occ Sch Wednesday, !- Wednesday Schedule:Day Name\n   *************   2264   Sp-Corner_Class_1_Pod_2_ZN_1_FLR_1 Sys-3 Flr-1 Sch-D HPlcmt-south ZN NECB System 3 PSZ Occ Sch Thursday, !- Thursday Schedule:Day Name\n   *************   2265   Sp-Corner_Class_1_Pod_2_ZN_1_FLR_1 Sys-3 Flr-1 Sch-D HPlcmt-south ZN NECB System 3 PSZ Occ Sch Friday, !- Friday Schedule:Day Name\n   *************   2266   Sp-Corner_Class_1_Pod_2_ZN_1_FLR_1 Sys-3 Flr-1 Sch-D HPlcmt-south ZN NECB System 3 PSZ Occ Sch Saturday, !- Saturday Schedule:Day Name\n   *************   2267   Sp-Corner_Class_1_Pod_2_ZN_1_FLR_1 Sys-3 Flr-1 Sch-D HPlcmt-south ZN NECB System 3 PSZ Occ Sch Default, !- Holiday Schedule:Day Name\n   ** Warning ** IP: IDF line~2267 Alpha Argument length exceeds maximum, will be truncated=  Sp-Corner_Class_1_Pod_2_ZN_1_FLR_1 Sys-3 Flr-1 Sch-D HPlcmt-south ZN NECB System 3 PSZ Occ Sch Defaul\n   **   ~~~   ** Will be processed as Alpha=SP-CORNER_CLASS_1_POD_2_ZN_1_FLR_1 SYS-3 FLR-1 SCH-D HPLCMT-SOUTH ZN NECB SYSTEM 3 PSZ OCC SCH DEFAULT\n   ************* IDF Context for following error/warning message:\n   ************* Note -- lines truncated at 300 characters, if necessary...\n   *************   2258 Schedule:Week:Daily,\n   ************* indicated Name=Schedule:Week:Daily {f73b031b-0896-4e90-8b44-acaf3e9c0892}\n   ************* Only last 10 lines before error line shown.....\n   *************   2259   Schedule:Week:Daily {f73b031b-0896-4e90-8b44-acaf3e9c0892}, !- Name\n   *************   2260   Sp-Corner_Class_1_Pod_2_ZN_1_FLR_1 Sys-3 Flr-1 Sch-D HPlcmt-south ZN NECB System 3 PSZ Occ Sch Sunday, !- Sunday Schedule:Day Name\n   *************   2261   Sp-Corner_Class_1_Pod_2_ZN_1_FLR_1 Sys-3 Flr-1 Sch-D HPlcmt-south ZN NECB System 3 PSZ Occ Sch Monday, !- Monday Schedule:Day Name\n   *************   2262   Sp-Corner_Class_1_Pod_2_ZN_1_FLR_1 Sys-3 Flr-1 Sch-D HPlcmt-south ZN NECB System 3 PSZ Occ Sch Tuesday, !- Tuesday Schedule:Day Name\n   *************   2263   Sp-Corner_Class_1_Pod_2_ZN_1_FLR_1 Sys-3 Flr-1 Sch-D HPlcmt-south ZN NECB System 3 PSZ Occ Sch Wednesday, !- Wednesday Schedule:Day Name\n   *************   2264   Sp-Corner_Class_1_Pod_2_ZN_1_FLR_1 Sys-3 Flr-1 Sch-D HPlcmt-south ZN NECB System 3 PSZ Occ Sch Thursday, !- Thursday Schedule:Day Name\n   *************   2265   Sp-Corner_Class_1_Pod_2_ZN_1_FLR_1 Sys-3 Flr-1 Sch-D HPlcmt-south ZN NECB System 3 PSZ Occ Sch Friday, !- Friday Schedule:Day Name\n   *************   2266   Sp-Corner_Class_1_Pod_2_ZN_1_FLR_1 Sys-3 Flr-1 Sch-D HPlcmt-south ZN NECB System 3 PSZ Occ Sch Saturday, !- Saturday Schedule:Day Name\n   *************   2267   Sp-Corner_Class_1_Pod_2_ZN_1_FLR_1 Sys-3 Flr-1 Sch-D HPlcmt-south ZN NECB System 3 PSZ Occ Sch Default, !- Holiday Schedule:Day Name\n   *************   2268   Sp-Corner_Class_1_Pod_2_ZN_1_FLR_1 Sys-3 Flr-1 Sch-D HPlcmt-south ZN NECB System 3 PSZ Occ Sch Summer Design Day, !- SummerDesignDay Schedule:Day Name\n   ** Warning ** IP: IDF line~2268 Alpha Argument length exceeds maximum, will be truncated=  Sp-Corner_Class_1_Pod_2_ZN_1_FLR_1 Sys-3 Flr-1 Sch-D HPlcmt-south ZN NECB System 3 PSZ Occ Sch Summer Design Da\n   **   ~~~   ** Will be processed as Alpha=SP-CORNER_CLASS_1_POD_2_ZN_1_FLR_1 SYS-3 FLR-1 SCH-D HPLCMT-SOUTH ZN NECB SYSTEM 3 PSZ OCC SCH SUMMER DESIGN DAY\n   ************* IDF Context for following error/warning message:\n   ************* Note -- lines truncated at 300 characters, if necessary...\n   *************   2258 Schedule:Week:Daily,\n   ************* indicated Name=Schedule:Week:Daily {f73b031b-0896-4e90-8b44-acaf3e9c0892}\n   ************* Only last 10 lines before error line shown.....\n   *************   2260   Sp-Corner_Class_1_Pod_2_ZN_1_FLR_1 Sys-3 Flr-1 Sch-D HPlcmt-south ZN NECB System 3 PSZ Occ Sch Sunday, !- Sunday Schedule:Day Name\n   *************   2261   Sp-Corner_Class_1_Pod_2_ZN_1_FLR_1 Sys-3 Flr-1 Sch-D HPlcmt-south ZN NECB System 3 PSZ Occ Sch Monday, !- Monday Schedule:Day Name\n   *************   2262   Sp-Corner_Class_1_Pod_2_ZN_1_FLR_1 Sys-3 Flr-1 Sch-D HPlcmt-south ZN NECB System 3 PSZ Occ Sch Tuesday, !- Tuesday Schedule:Day Name\n   *************   2263   Sp-Corner_Class_1_Pod_2_ZN_1_FLR_1 Sys-3 Flr-1 Sch-D HPlcmt-south ZN NECB System 3 PSZ Occ Sch Wednesday, !- Wednesday Schedule:Day Name\n   *************   2264   Sp-Corner_Class_1_Pod_2_ZN_1_FLR_1 Sys-3 Flr-1 Sch-D HPlcmt-south ZN NECB System 3 PSZ Occ Sch Thursday, !- Thursday Schedule:Day Name\n   *************   2265   Sp-Corner_Class_1_Pod_2_ZN_1_FLR_1 Sys-3 Flr-1 Sch-D HPlcmt-south ZN NECB System 3 PSZ Occ Sch Friday, !- Friday Schedule:Day Name\n   *************   2266   Sp-Corner_Class_1_Pod_2_ZN_1_FLR_1 Sys-3 Flr-1 Sch-D HPlcmt-south ZN NECB System 3 PSZ Occ Sch Saturday, !- Saturday Schedule:Day Name\n   *************   2267   Sp-Corner_Class_1_Pod_2_ZN_1_FLR_1 Sys-3 Flr-1 Sch-D HPlcmt-south ZN NECB System 3 PSZ Occ Sch Default, !- Holiday Schedule:Day Name\n   *************   2268   Sp-Corner_Class_1_Pod_2_ZN_1_FLR_1 Sys-3 Flr-1 Sch-D HPlcmt-south ZN NECB System 3 PSZ Occ Sch Summer Design Day, !- SummerDesignDay Schedule:Day Name\n   *************   2269   Sp-Corner_Class_1_Pod_2_ZN_1_FLR_1 Sys-3 Flr-1 Sch-D HPlcmt-south ZN NECB System 3 PSZ Occ Sch Winter Design Day, !- WinterDesignDay Schedule:Day Name\n   ** Warning ** IP: IDF line~2269 Alpha Argument length exceeds maximum, will be truncated=  Sp-Corner_Class_1_Pod_2_ZN_1_FLR_1 Sys-3 Flr-1 Sch-D HPlcmt-south ZN NECB System 3 PSZ Occ Sch Winter Design Da\n   **   ~~~   ** Will be processed as Alpha=SP-CORNER_CLASS_1_POD_2_ZN_1_FLR_1 SYS-3 FLR-1 SCH-D HPLCMT-SOUTH ZN NECB SYSTEM 3 PSZ OCC SCH WINTER DESIGN DAY\n   ************* IDF Context for following error/warning message:\n   ************* Note -- lines truncated at 300 characters, if necessary...\n   *************   2258 Schedule:Week:Daily,\n   ************* indicated Name=Schedule:Week:Daily {f73b031b-0896-4e90-8b44-acaf3e9c0892}\n   ************* Only last 10 lines before error line shown.....\n   *************   2261   Sp-Corner_Class_1_Pod_2_ZN_1_FLR_1 Sys-3 Flr-1 Sch-D HPlcmt-south ZN NECB System 3 PSZ Occ Sch Monday, !- Monday Schedule:Day Name\n   *************   2262   Sp-Corner_Class_1_Pod_2_ZN_1_FLR_1 Sys-3 Flr-1 Sch-D HPlcmt-south ZN NECB System 3 PSZ Occ Sch Tuesday, !- Tuesday Schedule:Day Name\n   *************   2263   Sp-Corner_Class_1_Pod_2_ZN_1_FLR_1 Sys-3 Flr-1 Sch-D HPlcmt-south ZN NECB System 3 PSZ Occ Sch Wednesday, !- Wednesday Schedule:Day Name\n   *************   2264   Sp-Corner_Class_1_Pod_2_ZN_1_FLR_1 Sys-3 Flr-1 Sch-D HPlcmt-south ZN NECB System 3 PSZ Occ Sch Thursday, !- Thursday Schedule:Day Name\n   *************   2265   Sp-Corner_Class_1_Pod_2_ZN_1_FLR_1 Sys-3 Flr-1 Sch-D HPlcmt-south ZN NECB System 3 PSZ Occ Sch Friday, !- Friday Schedule:Day Name\n   *************   2266   Sp-Corner_Class_1_Pod_2_ZN_1_FLR_1 Sys-3 Flr-1 Sch-D HPlcmt-south ZN NECB System 3 PSZ Occ Sch Saturday, !- Saturday Schedule:Day Name\n   *************   2267   Sp-Corner_Class_1_Pod_2_ZN_1_FLR_1 Sys-3 Flr-1 Sch-D HPlcmt-south ZN NECB System 3 PSZ Occ Sch Default, !- Holiday Schedule:Day Name\n   *************   2268   Sp-Corner_Class_1_Pod_2_ZN_1_FLR_1 Sys-3 Flr-1 Sch-D HPlcmt-south ZN NECB System 3 PSZ Occ Sch Summer Design Day, !- SummerDesignDay Schedule:Day Name\n   *************   2269   Sp-Corner_Class_1_Pod_2_ZN_1_FLR_1 Sys-3 Flr-1 Sch-D HPlcmt-south ZN NECB System 3 PSZ Occ Sch Winter Design Day, !- WinterDesignDay Schedule:Day Name\n   *************   2270   Sp-Corner_Class_1_Pod_2_ZN_1_FLR_1 Sys-3 Flr-1 Sch-D HPlcmt-south ZN NECB System 3 PSZ Occ Sch Default, !- CustomDay1 Schedule:Day Name\n   ** Warning ** IP: IDF line~2270 Alpha Argument length exceeds maximum, will be truncated=  Sp-Corner_Class_1_Pod_2_ZN_1_FLR_1 Sys-3 Flr-1 Sch-D HPlcmt-south ZN NECB System 3 PSZ Occ Sch Defaul\n   **   ~~~   ** Will be processed as Alpha=SP-CORNER_CLASS_1_POD_2_ZN_1_FLR_1 SYS-3 FLR-1 SCH-D HPLCMT-SOUTH ZN NECB SYSTEM 3 PSZ OCC SCH DEFAULT\n   ************* IDF Context for following error/warning message:\n   ************* Note -- lines truncated at 300 characters, if necessary...\n   *************   2258 Schedule:Week:Daily,\n   ************* indicated Name=Schedule:Week:Daily {f73b031b-0896-4e90-8b44-acaf3e9c0892}\n   ************* Only last 10 lines before error line shown.....\n   *************   2262   Sp-Corner_Class_1_Pod_2_ZN_1_FLR_1 Sys-3 Flr-1 Sch-D HPlcmt-south ZN NECB System 3 PSZ Occ Sch Tuesday, !- Tuesday Schedule:Day Name\n   *************   2263   Sp-Corner_Class_1_Pod_2_ZN_1_FLR_1 Sys-3 Flr-1 Sch-D HPlcmt-south ZN NECB System 3 PSZ Occ Sch Wednesday, !- Wednesday Schedule:Day Name\n   *************   2264   Sp-Corner_Class_1_Pod_2_ZN_1_FLR_1 Sys-3 Flr-1 Sch-D HPlcmt-south ZN NECB System 3 PSZ Occ Sch Thursday, !- Thursday Schedule:Day Name\n   *************   2265   Sp-Corner_Class_1_Pod_2_ZN_1_FLR_1 Sys-3 Flr-1 Sch-D HPlcmt-south ZN NECB System 3 PSZ Occ Sch Friday, !- Friday Schedule:Day Name\n   *************   2266   Sp-Corner_Class_1_Pod_2_ZN_1_FLR_1 Sys-3 Flr-1 Sch-D HPlcmt-south ZN NECB System 3 PSZ Occ Sch Saturday, !- Saturday Schedule:Day Name\n   *************   2267   Sp-Corner_Class_1_Pod_2_ZN_1_FLR_1 Sys-3 Flr-1 Sch-D HPlcmt-south ZN NECB System 3 PSZ Occ Sch Default, !- Holiday Schedule:Day Name\n   *************   2268   Sp-Corner_Class_1_Pod_2_ZN_1_FLR_1 Sys-3 Flr-1 Sch-D HPlcmt-south ZN NECB System 3 PSZ Occ Sch Summer Design Day, !- SummerDesignDay Schedule:Day Name\n   *************   2269   Sp-Corner_Class_1_Pod_2_ZN_1_FLR_1 Sys-3 Flr-1 Sch-D HPlcmt-south ZN NECB System 3 PSZ Occ Sch Winter Design Day, !- WinterDesignDay Schedule:Day Name\n   *************   2270   Sp-Corner_Class_1_Pod_2_ZN_1_FLR_1 Sys-3 Flr-1 Sch-D HPlcmt-south ZN NECB System 3 PSZ Occ Sch Default, !- CustomDay1 Schedule:Day Name\n   *************   2271   Sp-Corner_Class_1_Pod_2_ZN_1_FLR_1 Sys-3 Flr-1 Sch-D HPlcmt-south ZN NECB System 3 PSZ Occ Sch Default; !- CustomDay2 Schedule:Day Name\n   ** Warning ** IP: IDF line~2271 Alpha Argument length exceeds maximum, will be truncated=  Sp-Corner_Class_1_Pod_2_ZN_1_FLR_1 Sys-3 Flr-1 Sch-D HPlcmt-south ZN NECB System 3 PSZ Occ Sch Defaul\n   **   ~~~   ** Will be processed as Alpha=SP-CORNER_CLASS_1_POD_2_ZN_1_FLR_1 SYS-3 FLR-1 SCH-D HPLCMT-SOUTH ZN NECB SYSTEM 3 PSZ OCC SCH DEFAULT\n   ************* IDF Context for following error/warning message:\n   ************* Note -- lines truncated at 300 characters, if necessary...\n   *************   2282 Schedule:Day:Interval,\n   ************* indicated Name=Sp-Corner_Class_1_Pod_2_ZN_1_FLR_1 Sys-3 Flr-1 Sch-D HPlcmt-south ZN NECB System 3 PSZ Occ Sch Default\n   ************* Only last 1 lines before error line shown.....\n   *************   2283   Sp-Corner_Class_1_Pod_2_ZN_1_FLR_1 Sys-3 Flr-1 Sch-D HPlcmt-south ZN NECB System 3 PSZ Occ Sch Default, !- Name\n   ** Warning ** IP: IDF line~2283 Alpha Argument length exceeds maximum, will be truncated=  Sp-Corner_Class_1_Pod_2_ZN_1_FLR_1 Sys-3 Flr-1 Sch-D HPlcmt-south ZN NECB System 3 PSZ Occ Sch Defaul\n   **   ~~~   ** Will be processed as Alpha=SP-CORNER_CLASS_1_POD_2_ZN_1_FLR_1 SYS-3 FLR-1 SCH-D HPLCMT-SOUTH ZN NECB SYSTEM 3 PSZ OCC SCH DEFAULT\n   ************* IDF Context for following error/warning message:\n   ************* Note -- lines truncated at 300 characters, if necessary...\n   *************   2289 Schedule:Day:Interval,\n   ************* indicated Name=Sp-Corner_Class_1_Pod_2_ZN_1_FLR_1 Sys-3 Flr-1 Sch-D HPlcmt-south ZN NECB System 3 PSZ Occ Sch Summer Design Day\n   ************* Only last 1 lines before error line shown.....\n   *************   2290   Sp-Corner_Class_1_Pod_2_ZN_1_FLR_1 Sys-3 Flr-1 Sch-D HPlcmt-south ZN NECB System 3 PSZ Occ Sch Summer Design Day, !- Name\n   ** Warning ** IP: IDF line~2290 Alpha Argument length exceeds maximum, will be truncated=  Sp-Corner_Class_1_Pod_2_ZN_1_FLR_1 Sys-3 Flr-1 Sch-D HPlcmt-south ZN NECB System 3 PSZ Occ Sch Summer Design Da\n   **   ~~~   ** Will be processed as Alpha=SP-CORNER_CLASS_1_POD_2_ZN_1_FLR_1 SYS-3 FLR-1 SCH-D HPLCMT-SOUTH ZN NECB SYSTEM 3 PSZ OCC SCH SUMMER DESIGN DAY\n   ************* IDF Context for following error/warning message:\n   ************* Note -- lines truncated at 300 characters, if necessary...\n   *************   2296 Schedule:Day:Interval,\n   ************* indicated Name=Sp-Corner_Class_1_Pod_2_ZN_1_FLR_1 Sys-3 Flr-1 Sch-D HPlcmt-south ZN NECB System 3 PSZ Occ Sch Winter Design Day\n   ************* Only last 1 lines before error line shown.....\n   *************   2297   Sp-Corner_Class_1_Pod_2_ZN_1_FLR_1 Sys-3 Flr-1 Sch-D HPlcmt-south ZN NECB System 3 PSZ Occ Sch Winter Design Day, !- Name\n   ** Warning ** IP: IDF line~2297 Alpha Argument length exceeds maximum, will be truncated=  Sp-Corner_Class_1_Pod_2_ZN_1_FLR_1 Sys-3 Flr-1 Sch-D HPlcmt-south ZN NECB System 3 PSZ Occ Sch Winter Design Da\n   **   ~~~   ** Will be processed as Alpha=SP-CORNER_CLASS_1_POD_2_ZN_1_FLR_1 SYS-3 FLR-1 SCH-D HPLCMT-SOUTH ZN NECB SYSTEM 3 PSZ OCC SCH WINTER DESIGN DAY\n   ************* IDF Context for following error/warning message:\n   ************* Note -- lines truncated at 300 characters, if necessary...\n   *************   2569 Schedule:Day:Interval,\n   ************* indicated Name=Sp-Corner_Class_1_Pod_3_ZN_1_FLR_1 Sys-3 Flr-1 Sch-D HPlcmt-south ZN NECB System 3 PSZ Occ Sch Sunday\n   ************* Only last 1 lines before error line shown.....\n   *************   2570   Sp-Corner_Class_1_Pod_3_ZN_1_FLR_1 Sys-3 Flr-1 Sch-D HPlcmt-south ZN NECB System 3 PSZ Occ Sch Sunday, !- Name\n   ** Warning ** IP: IDF line~2570 Alpha Argument length exceeds maximum, will be truncated=  Sp-Corner_Class_1_Pod_3_ZN_1_FLR_1 Sys-3 Flr-1 Sch-D HPlcmt-south ZN NECB System 3 PSZ Occ Sch Sunda\n   **   ~~~   ** Will be processed as Alpha=SP-CORNER_CLASS_1_POD_3_ZN_1_FLR_1 SYS-3 FLR-1 SCH-D HPLCMT-SOUTH ZN NECB SYSTEM 3 PSZ OCC SCH SUNDAY\n   ************* IDF Context for following error/warning message:\n   ************* Note -- lines truncated at 300 characters, if necessary...\n   *************   2576 Schedule:Day:Interval,\n   ************* indicated Name=Sp-Corner_Class_1_Pod_3_ZN_1_FLR_1 Sys-3 Flr-1 Sch-D HPlcmt-south ZN NECB System 3 PSZ Occ Sch Monday\n   ************* Only last 1 lines before error line shown.....\n   *************   2577   Sp-Corner_Class_1_Pod_3_ZN_1_FLR_1 Sys-3 Flr-1 Sch-D HPlcmt-south ZN NECB System 3 PSZ Occ Sch Monday, !- Name\n   ** Warning ** IP: IDF line~2577 Alpha Argument length exceeds maximum, will be truncated=  Sp-Corner_Class_1_Pod_3_ZN_1_FLR_1 Sys-3 Flr-1 Sch-D HPlcmt-south ZN NECB System 3 PSZ Occ Sch Monda\n   **   ~~~   ** Will be processed as Alpha=SP-CORNER_CLASS_1_POD_3_ZN_1_FLR_1 SYS-3 FLR-1 SCH-D HPLCMT-SOUTH ZN NECB SYSTEM 3 PSZ OCC SCH MONDAY\n   ************* IDF Context for following error/warning message:\n   ************* Note -- lines truncated at 300 characters, if necessary...\n   *************   2591 Schedule:Day:Interval,\n   ************* indicated Name=Sp-Corner_Class_1_Pod_3_ZN_1_FLR_1 Sys-3 Flr-1 Sch-D HPlcmt-south ZN NECB System 3 PSZ Occ Sch Tuesday\n   ************* Only last 1 lines before error line shown.....\n   *************   2592   Sp-Corner_Class_1_Pod_3_ZN_1_FLR_1 Sys-3 Flr-1 Sch-D HPlcmt-south ZN NECB System 3 PSZ Occ Sch Tuesday, !- Name\n   ** Warning ** IP: IDF line~2592 Alpha Argument length exceeds maximum, will be truncated=  Sp-Corner_Class_1_Pod_3_ZN_1_FLR_1 Sys-3 Flr-1 Sch-D HPlcmt-south ZN NECB System 3 PSZ Occ Sch Tuesda\n   **   ~~~   ** Will be processed as Alpha=SP-CORNER_CLASS_1_POD_3_ZN_1_FLR_1 SYS-3 FLR-1 SCH-D HPLCMT-SOUTH ZN NECB SYSTEM 3 PSZ OCC SCH TUESDAY\n   ************* IDF Context for following error/warning message:\n   ************* Note -- lines truncated at 300 characters, if necessary...\n   *************   2606 Schedule:Day:Interval,\n   ************* indicated Name=Sp-Corner_Class_1_Pod_3_ZN_1_FLR_1 Sys-3 Flr-1 Sch-D HPlcmt-south ZN NECB System 3 PSZ Occ Sch Wednesday\n   ************* Only last 1 lines before error line shown.....\n   *************   2607   Sp-Corner_Class_1_Pod_3_ZN_1_FLR_1 Sys-3 Flr-1 Sch-D HPlcmt-south ZN NECB System 3 PSZ Occ Sch Wednesday, !- Name\n   ** Warning ** IP: IDF line~2607 Alpha Argument length exceeds maximum, will be truncated=  Sp-Corner_Class_1_Pod_3_ZN_1_FLR_1 Sys-3 Flr-1 Sch-D HPlcmt-south ZN NECB System 3 PSZ Occ Sch Wednesda\n   **   ~~~   ** Will be processed as Alpha=SP-CORNER_CLASS_1_POD_3_ZN_1_FLR_1 SYS-3 FLR-1 SCH-D HPLCMT-SOUTH ZN NECB SYSTEM 3 PSZ OCC SCH WEDNESDAY\n   ************* IDF Context for following error/warning message:\n   ************* Note -- lines truncated at 300 characters, if necessary...\n   *************   2621 Schedule:Day:Interval,\n   ************* indicated Name=Sp-Corner_Class_1_Pod_3_ZN_1_FLR_1 Sys-3 Flr-1 Sch-D HPlcmt-south ZN NECB System 3 PSZ Occ Sch Thursday\n   ************* Only last 1 lines before error line shown.....\n   *************   2622   Sp-Corner_Class_1_Pod_3_ZN_1_FLR_1 Sys-3 Flr-1 Sch-D HPlcmt-south ZN NECB System 3 PSZ Occ Sch Thursday, !- Name\n   ** Warning ** IP: IDF line~2622 Alpha Argument length exceeds maximum, will be truncated=  Sp-Corner_Class_1_Pod_3_ZN_1_FLR_1 Sys-3 Flr-1 Sch-D HPlcmt-south ZN NECB System 3 PSZ Occ Sch Thursda\n   **   ~~~   ** Will be processed as Alpha=SP-CORNER_CLASS_1_POD_3_ZN_1_FLR_1 SYS-3 FLR-1 SCH-D HPLCMT-SOUTH ZN NECB SYSTEM 3 PSZ OCC SCH THURSDAY\n   ************* IDF Context for following error/warning message:\n   ************* Note -- lines truncated at 300 characters, if necessary...\n   *************   2636 Schedule:Day:Interval,\n   ************* indicated Name=Sp-Corner_Class_1_Pod_3_ZN_1_FLR_1 Sys-3 Flr-1 Sch-D HPlcmt-south ZN NECB System 3 PSZ Occ Sch Friday\n   ************* Only last 1 lines before error line shown.....\n   *************   2637   Sp-Corner_Class_1_Pod_3_ZN_1_FLR_1 Sys-3 Flr-1 Sch-D HPlcmt-south ZN NECB System 3 PSZ Occ Sch Friday, !- Name\n   ** Warning ** IP: IDF line~2637 Alpha Argument length exceeds maximum, will be truncated=  Sp-Corner_Class_1_Pod_3_ZN_1_FLR_1 Sys-3 Flr-1 Sch-D HPlcmt-south ZN NECB System 3 PSZ Occ Sch Frida\n   **   ~~~   ** Will be processed as Alpha=SP-CORNER_CLASS_1_POD_3_ZN_1_FLR_1 SYS-3 FLR-1 SCH-D HPLCMT-SOUTH ZN NECB SYSTEM 3 PSZ OCC SCH FRIDAY\n   ************* IDF Context for following error/warning message:\n   ************* Note -- lines truncated at 300 characters, if necessary...\n   *************   2651 Schedule:Day:Interval,\n   ************* indicated Name=Sp-Corner_Class_1_Pod_3_ZN_1_FLR_1 Sys-3 Flr-1 Sch-D HPlcmt-south ZN NECB System 3 PSZ Occ Sch Saturday\n   ************* Only last 1 lines before error line shown.....\n   *************   2652   Sp-Corner_Class_1_Pod_3_ZN_1_FLR_1 Sys-3 Flr-1 Sch-D HPlcmt-south ZN NECB System 3 PSZ Occ Sch Saturday, !- Name\n   ** Warning ** IP: IDF line~2652 Alpha Argument length exceeds maximum, will be truncated=  Sp-Corner_Class_1_Pod_3_ZN_1_FLR_1 Sys-3 Flr-1 Sch-D HPlcmt-south ZN NECB System 3 PSZ Occ Sch Saturda\n   **   ~~~   ** Will be processed as Alpha=SP-CORNER_CLASS_1
[...]
U8WnQN1vxadD3YfFp0Ldo8WnQ9yXyadC3LPJp0Hcz8mnQNzryadRQ55rbI/k0aqhzzU2VfBo1rOQaW6XTKH1DSTVbVbzChEGCtlVsEnRnsEnQfcEmQdsqNgnaVrFJ0LaKTYK2VWwS9HTLJqGxVXwa9HTLp0FPt3watK3i06BtFZ8Gbav4NGhbxadB2yo+DdpW8WnUUOcaW8WnUUOda2wVn0YNK7nGVuk0SjeCr2arip3iGSRoW8UmQXcGmwTdF2wStK1ik6BtFZsEbavYJGhbxSZBT7dsEhpbxadBT7d8GvR0y6dB2yo+DdpW8WnQtopPg7ZVfBq0reLToG0Vn0YNda6xVXwaNdS5xlbxadSwkmtslU6jdL/daraq2JCXQYK2VWwSdGewSdB9wSZB2yo2CdpWsUnQtopNgrZVbBL0dMsmobFVfBr0dMunQU+3fBq0reLToG0VnwZtq/g0aFvFp0HbKj4N2lbxadRQ5xpbxadRQ51rbBWfRg0rucZW6TRKtzWsZquKfQ8ZJGhbxSZBdwabBN0XbBK0rWKToG0VmwRtq9gkaFvFJkFPt2wS2s3WuDR0u1Vxaeg2suLS0O1xxaWh2/6KS0O35xuXhm47OC4N3U5xXBq6TeS4NGqoc+3Wc1waNdS5dsM6Lo0aVnKNrVppfK+yw+tyR2dxJEJ5v9pBNt84tpHcTZr5DrClW8WutoVOZPo+mode0uh1msK2e03RVT85vWrbzT5kGE+7XXvewE3lJIoXxw9+Umyr/HT9FfaezhKcx56ML+Zql+PKJyqOxUuOT9JN5rEsMNRGzct23/C+3wgjjDDCCCOMMMIII4wwwggjjDDCCCOMMMIII4wwwggjjDDCCCOMMMIII4wwwggjjDDCCCOMMMIII4wwwggjjDDCCCOMMMII/6XCi3Z0J+PY9+QnVz1Ya7c7/+PzqurR2OTlo7GXMvZlsny81mquHiCeBVHaDvxQlj4im7z2nG75k7VJO3/1/CwK3NSPwgzKSlI5a13LcRRLq9qTzx/lRIbeywsqPmv0O03RVU8ud9SDzOofK5DjVIGVpF6lbQ8nMj0NU9U+mcR4Ho5y0sa2+KMkxYpQPp19Vfostzr8sWikUz9pJ3mvVBNSx7OT2ln7nbqjaeM/wKbZVvjq0fGMfZl3OIsSXyU8yT6ucjWrQ6V5hSqO7s2QVlh+6ElVDy27aXj26rhZ98SxLwM13hrLNi3qZBJH85n0xM8/i78tP39oD6dusnz+XRXY9vPo4tVo1iBtdzI5UxrtQIaTdCreCUf8U1jHQWCJw5ffSAJ/JBste/uq8327tN7+dCVRLBo32aV0fhE3mcxyqC511Wd/z2Yc8w5ShxrGy3xXN9/bP+RCHB0dFY23XsY867Lbb0wvdXVcx9L9sc7Jj4bnmH5ftdfy6o7UsFaDYTlS8o0c2kM3SfxJKL2B2iIiucpb8vt6Tbnq6Nk8mTbW7YusSw+L/ly/koLgsMpVttU311VJ0jj6IavpFN9dVymauSM/XVSTWn557avKJVZS62ZZTSQvp5V1ysN48lHHqpxfTjyiJWzTbCblVp31sZmvqpW+/1jmKdSxsyO+/P5V/Pv89wtxeX7x9bfPv4qP57/+NhAfTi9OqyU4y2Zt+eAqiybSSCRRnIpwfpuNg5HItzRJhJuMMvPih5MKGVdtr/I8W5ndpriuPrnEMp3HoZi5cSLPgshNG66a8rezrnz22XX+WaXGLLdoz2SXl1CW+HGzO708+c+83PNib2x5cuzOg1TM4iibw+RWU2z9tL8/GJyebm144xngAAc4wAEOcIADHOAABzjA+WviiGR+m/0XWHhSfSg8d6GIYumBBjSgAQ1oQAMa0IAGNKABDWj0NPf5rVn/RXMdzCVwgAMc4AAHOMABDnCAAxzgAGcdnKf3BtrqvYGXc+q9gV07/wvb8fHu7sEBSEEKUpCCFKQgBSlIQQpSkIIUpCB9G6ROTuqmFGknJ+12HWe/D1KQghSkIAUpSEEKUpCCFKQgBSlI3wZpV5GexT5B6hzkpLa9t9ftghSkIAUpSEEKUpCCFKQgBSlIQQrSt0G6q0i/TucU6X5OepAdvfcgBSlIQQpSkIIUpCAFKUhBClKQgvRtkPYU6b+kR5Hu5aQnJ4PB3h5IQQpSkIIUpCAFKUhBClKQghSkIH0bpP38NxNzSZH2c9LBoN8HKUhBClKQghSkIAUpSEEKUpCCFKRvhXRPkX6KqJ0FnV5Our/vOL0eSEEKUpCCFKQgBSlIQQpSkIIUpCCtjXSF4sXufaM02UM79dNAXk7dmWyn8iFtbH2I5nFSjrH485kn/q0MEz8KA5nkGUpS7OyIY88TrsgziXs/nYokupXC65acmdxN2u5sJkOvYSlta7vkhNXRdtM0blgPVlP0O4YnLbKTnOonJekikAVeyw1H0yjOzrcCOTagXeYYR2Haupf+ZJqqHNdR4FXPUfTN5az1aR6kw0GQjdGhPfwSecPu8Nvn7MezjxdDW1wuklZXnAVxK/t5NG2diA9fgtFt2kqiedYv3z6Lz6eD9+prqbwVXfHl8ps4H43Ud7e2dT39bicZxf4s/Qf5nXc7nn/3epg8h06W5RK+d2SNVBkMspZz/VDGQ9vuWSJvzyPL85NZ4C4O/TDIYq3rIBr9+MWiAbOsxTWIdDHLzldNunPj3rnFp9oz1XHnxmrIiiPh+bezQLZDeX95N2lYP70C2RS7nU7+T2kNqryem7pZ4qs/rMC9loF1aHly7GZdLWZxNPYDaTWLyPDBOrTbnaZ15wZzufx5pKaq7Jxs9hkMTk+tx2alPA5Tni5Tnl2mPD2mPH2mPHtMefaZ8hww5bE7XIm4RrTNNaRtrjFtcw1qm2tU21zD2uYa1zbXwLa5RrbDNbIdtrmaa2Q7XCPbMRrZIpnf3r54d3WlFS2WnkEaso3M0pAtZJaGbB+zNGTdm6Uhq94sDVnzZmnIijdLQ9a7WRp6ITPMwzSO6WXMMA/TSKYXMcM8TGOZXsIM8zCNZnoBM8zDNJ7p5cswD9e8zDSe6bXLME/18Xzvh6n5snWtPqqeh2wewzxk8xjmIZvHMA9Z7oZ5yHI3zEOWu2EestwN85DlbpiHXr9ME3GNaHoFM03ENabpNcw0Edeoplcx00Rc45pex0wTcY1seiUzTcQ2V3ONbHoxM01UfWQ//TGj9GXD1DLXefEfveJtxAwSzuYlupuX2N28RG/zEv3NS+xtXmJ/8xIHm5d4sbJvSqOG+rZrKHC7hgq3ayhxu4Yat2socruGKrdrKHO7hjp3aqhzp451vIY6d2qoc2e9Oi99p2M1W1W89JFBgu4NNgm6M9gk6L5gk6CnXDYJesZlk6AnXDYJer5lk6CnWzYJja3i06ihvjW2ik+jhgrX2Co+jRpqXGOr+DRqqHKNreLTqKHONbaKT6OOdbyGOtfYKj6N9eq89NVZ1WxV8W4tBgm6N9gk6M5gk6D7gk2CnnLZJOgZl02CnnDZJOj5lk2Cnm7ZJDQ3BPJp0HdU8WnQN1vxadD3YfFp0Ldo8WnQ9yXyadC3LPJp0Hcz8mnQNzryadRQ55rbI/k0aqhzzU2VfBo1rOQaW6XTKH1DSTVbVbzChEGCtlVsEnRnsEnQfcEmQdsqNgnaVrFJ0LaKTYK2VWwS9HTLJqGxVXwa9HTLp0FPt3watK3i06BtFZ8Gbav4NGhbxadB2yo+DdpW8WnUUOcaW8WnUUOda2wVn0YNK7nGVuk0SjeCr2arip3iGSRoW8UmQXcGmwTdF2wStK1ik6BtFZsEbavYJGhbxSZBT7dsEhpbxadBT7d8GvR0y6dB2yo+DdpW8WnQtopPg7ZVfBq0reLToG0Vn0YNda6xVXwaNdS5xlbxadSwkmtslU6jdL/daraq2JCXQYK2VWwSdGewSdB9wSZB2yo2CdpWsUnQtopNgrZVbBL0dMsmobFVfBr0dMunQU+3fBq0reLToG0VnwZtq/g0aFvFp0HbKj4N2lbxadRQ5xpbxadRQ51rbBWfRg0rucZW6TRKtzWsZquKfQ8ZJGhbxSZBdwabBN0XbBK0rWKToG0VmwRtq9gkaFvFJkFPt2wS2s3WuDR0u1Vxaeg2suLS0O1xxaWh2/6KS0O35xuXhm47OC4N3U5xXBq6TeS4NGqoc+3Wc1waNdS5dsM6Lo0aVnKNrVppfK+yw+tyR2dxJEJ5v9pBNt84tpHcTZr5DrClW8WutoVOZPo+mode0uh1msK2e03RVT85vWrbzT5kGE+7XXvewE3lJIoXxw9+Umyr/HT9FfaezhKcx56ML+Zql+PKJyqOxUuOT9JN5rEsMNRGzct23/C+3wgjjDDCCCOMMMIII4wwwggjjDDCCCOMMMIII4wwwggjjDDCCCOMMMIII4wwwggjjDDCCCOMMMIII4wwwggjjDDCCCOMMMII/6XCi3Z0J+PY9+QnVz1Ya7c7/+PzqurR2OTlo7GXMvZlsny81mquHiCeBVHaDvxQlj4im7z2nG75k7VJO3/1/CwK3NSPwgzKSlI5a13LcRRLq9qTzx/lRIbeywsqPmv0O03RVU8ud9SDzOofK5DjVIGVpF6lbQ8nMj0NU9U+mcR4Ho5y0sa2+KMkxYpQPp19Vfostzr8sWikUz9pJ3mvVBNSx7OT2ln7nbqjaeM/wKbZVvjq0fGMfZl3OIsSXyU8yT6ucjWrQ6V5hSqO7s2QVlh+6ElVDy27aXj26rhZ98SxLwM13hrLNi3qZBJH85n0xM8/i78tP39oD6dusnz+XRXY9vPo4tVo1iBtdzI5UxrtQIaTdCreCUf8U1jHQWCJw5ffSAJ/JBste/uq8327tN7+dCVRLBo32aV0fhE3mcxyqC511Wd/z2Yc8w5ShxrGy3xXN9/bP+RCHB0dFY23XsY867Lbb0wvdXVcx9L9sc7Jj4bnmH5ftdfy6o7UsFaDYTlS8o0c2kM3SfxJKL2B2iIiucpb8vt6Tbnq6Nk8mTbW7YusSw+L/ly/koLgsMpVttU311VJ0jj6IavpFN9dVymauSM/XVSTWn557avKJVZS62ZZTSQvp5V1ysN48lHHqpxfTjyiJWzTbCblVp31sZmvqpW+/1jmKdSxsyO+/P5V/Pv89wtxeX7x9bfPv4qP57/+NhAfTi9OqyU4y2Zt+eAqiybSSCRRnIpwfpuNg5HItzRJhJuMMvPih5MKGVdtr/I8W5ndpriuPrnEMp3HoZi5cSLPgshNG66a8rezrnz22XX+WaXGLLdoz2SXl1CW+HGzO708+c+83PNib2x5cuzOg1TM4iibw+RWU2z9tL8/GJyebm144xngAAc4wAEOcIADHOAABzjA+WviiGR+m/0XWHhSfSg8d6GIYumBBjSgAQ1oQAMa0IAGNKABDWj0NPf5rVn/RXMdzCVwgAMc4AAHOMABDnCAAxzgAGcdnKf3BtrqvYGXc+q9gV07/wvb8fHu7sEBSEEKUpCCFKQgBSlIQQpSkIIUpCB9G6ROTuqmFGknJ+12HWe/D1KQghSkIAUpSEEKUpCCFKQgBSlI3wZpV5GexT5B6hzkpLa9t9ftghSkIAUpSEEKUpCCFKQgBSlIQQrSt0G6q0i/TucU6X5OepAdvfcgBSlIQQpSkIIUpCAFKUhBClKQgvRtkPYU6b+kR5Hu5aQnJ4PB3h5IQQpSkIIUpCAFKUhBClKQghSkIH0bpP38NxNzSZH2c9LBoN8HKUhBClKQghSkIAUpSEEKUpCCFKRvhXRPkX6KqJ0FnV5Our/vOL0eSEEKUpCCFKQgBSlIQQpSkIIUpCCtjXSF4sXufaM02UM79dNAXk7dmWyn8iFtbH2I5nFSjrH485kn/q0MEz8KA5nkGUpS7OyIY88TrsgziXs/nYokupXC65acmdxN2u5sJkOvYSlta7vkhNXRdtM0blgPVlP0O4YnLbKTnOonJekikAVeyw1H0yjOzrcCOTagXeYYR2Haupf+ZJqqHNdR4FXPUfTN5az1aR6kw0GQjdGhM/wSeUN7+O1z9s/Zx4uhLS4XSasrzoK4lf08mrZOxIcvweg2bYVRnPXLt8/i8+ngvfpaKm9FV3y5/CbORyP13a1tXU+/20lGsT9L/0F+592O59+9HibPoZNluYTvHVkjVQaDrOVcP5Tx0Lb7lsjb88jy/GQWuItDPwyyWOs6iEY/frFowCxrcQ0iXcyy81WT7ty4d27xqfZMddy5sRqy4kh4/u0skO1Q3l/eTRrWT69ANsVup5P/U1qDKq/npm6W+OoPK3CvZWAdWp4cu1lXi1kcjf1AWs0iMnywDu12p2nducFcLn8eqakqOyebfQaD01PrsVkpj8OUp8uUZ5cpT48pT58pzx5Tnn2mPAdMeewOVyKuEW1zDWmba0zbXIPa5hrVNtewtrnGtc01sG2uke1wjWyHba7mGtkO18h2jEa2SOa3ty/eXV1pRYulZ5CGbCOzNGQLmaUh28csDVn3ZmnIqjdLQ9a8WRqy4s3SkPVuloZeyAzzMI1jehkzzMM0kulFzDAP01imlzDDPEyjmV7ADPMwjWd6+TLMwzUvM41neu0yzFN9PN/7YWq+bF2rj6rnIZvHMA/ZPIZ5yOYxzEOWu2EestwN85DlbpiHLHfDPGS5G+ah1y/TRFwjml7BTBNxjWl6DTNNxDWq6VXMNBHXuKbXMdNEXCObXslME7HN1Vwjm17MTBNVH9lPf8wofdkwtcx1XvxHr3gbMYOEs3mJ7uYldjcv0du8RH/zEnubl9jfvMTB5iVerOyb0qihvu0aCtyuocLtGkrcrqHG7RqK3K6hyu0aytyuoc6dGurcqWMdr6HOnRrq3Fmvzkvf6VjNVhUvfWSQoHuDTYLuDDYJui/YJOgpl02CnnHZJOgJl02Cnm/ZJOjplk1CY6v4NGqob42t4tOoocI1topPo4Ya19gqPo0aqlxjq/g0aqhzja3i06hjHa+hzjW2ik9jvTovfXVWNVtVvFuLQYLuDTYJujPYJOi+YJOgp1w2CXrGZZOgJ1w2CXq+ZZOgp1s2Cc0NgXwa9B1VfBr0zVZ8GvR9WHwa9C1afBr0fYl8GvQti3wa9N2MfBr0jY58GjXUueb2SD6NGupcc1Mln0YNK7nGVuk0St9QUs1WFa8wYZCgbRWbBN0ZbBJ0X7BJ0LaKTYK2VWwStK1ik6BtFZsEPd2ySWhsFZ8GPd3yadDTLZ8Gbav4NGhbxadB2yo+DdpW8WnQtopPg7ZVfBo11LnGVvFp1FDnGlvFp1HDSq6xVTqN0o3gq9mqYqd4BgnaVrFJ0J3BJkH3BZsEbavYJGhbxSZB2yo2CdpWsUnQ0y2bhMZW8WnQ0y2fBj3d8mnQtopPg7ZVfBq0reLToG0VnwZtq/g0aFvFp1FDnWtsFZ9GDXWusVV8GjWs5BpbpdMo3W+3mq0qNuRlkKBtFZsE3RlsEnRfsEnQtopNgrZVbBK0rWKToG0VmwQ93bJJaGwVnwY93fJp0NMtnwZtq/g0aFvFp0HbKj4N2lbxadC2ik+DtlV8GjXUucZW8WnUUOcaW8WnUcNKrrFVOo3SbQ2r2api30MGCdpWsUnQncEmQfcFmwRtq9gkaFvFJkHbKjYJ2laxSdDTLZuEdrM1Lg3dblVcGrqNrLg0dHtccWnotr/i0tDt+calodsOjktDt1Mcl4ZuEzkujRrqXLv1HJdGDXWu3bCOS6OGlVxjq1Ya36vs8Lrc0VkciVDer3aQzTeObSR3k2a+A2zpVrGrbaETmb6P5qGXNHqdprDtXlN01U9Or9p2sw8ZxtNu1543cFM5ieLF8YOfFNsqP11/hb2nswTnsSfji7na5bjyiYpj8ZLjk3STeSwLDLVR87LdN7zvN8III4wwwggjjDDCCCOMMMIII4wwwggjjDDCCCOMMMIII4wwwggjjDDCCCOMMMIII4wwwggjjDDCCCOMMMIII4wwwggjjDDCf6nwoh3dyTj2PfnJVQ/W2u3O//i8qno0Nnn5aOyljH2ZLB+vtZqrB4hnQZS2Az+UpY/IJq89p1v+ZG3Szl89P4sCN/WjMIOyklTOWtdyHMXSqvbk80c5kaH38oKKzxr9TlN01ZPLHfUgs/rHCuQ4VWAlqVdp28OJTE/DVLVPJjGeh6OctLEt/ihJsSKUT2dflT7LrQ5/LBrp1E/aSd4r1YTU8eykdtZ+p+5o2vgPsGm2Fb56dDxjX+YdzqLEVwlPso+rXM3qUGleoYqjezOkFZYfelLVQ8tuGp69Om7WPXHsy0CNt8ayTYs6mcTRfCY98fPP4m/Lzx/aw6mbLJ9/VwW2/Ty6eDWaNUjbnUzOlEY7kOEknYp3whH/FNZxEFji8OU3ksAfyUbL3r7qfN8urbc/XUkUi8ZNdimdX8RNJrMcqktd9dnfsxnHvIPUoYbxMt/Vzff2D7kQR0dHReOtlzHPuuz2G9NLXR3XsXR/rHPyo+E5pt9X7bW8uiM1rNVgWI6UfCOH9tBNEn8SSm+gtohIrvKW/L5eU646ejZPpo11+yLr0sOiP9evpCA4rHKVbfXNdVWSNI5+yGo6xXfXVYpm7shPF9Wkll9e+6pyiZXUullWE8nLaWWd8jCefNSxKueXE49oCds0m0m5VWd9bOaraqXvP5Z5CnXs7Igvv38V/z7//UJcnl98/e3zr+Lj+a+/DcSH04vTagnOsllbPrjKook0EkkUpyKc32bjYCTyLU0S4SajzLz44aRCxlXbqzzPVma3Ka6rTy6xTOdxKGZunMizIHLThqum/O2sK599dp1/Vqkxyy3aM9nlJZQlftzsTi9P/jMv97zYG1ueHLvzIBWzOMrmMLnVFFs/7e8PBqenWxveeAY4wAEOcIADHOAABzjAAQ5w/po4IpnfZv8FFp5UHwrPXSiiWHqgAQ1oQAMa0IAGNKABDWhAAxo9zX1+a9Z/0VwHcwkc4AAHOMABDnCAAxzgAAc4wFkH5+m9gbZ6b+DlnHpvYNfO/8J2fLy7e3AAUpCCFKQgBSlIQQpSkIIUpCAFKUjfBqmTk7opRdrJSbtdx9nvgxSkIAUpSEEKUpCCFKQgBSlIQQrSt0HaVaRnsU+QOgc5qW3v7XW7IAUpSEEKUpCCFKQgBSlIQQpSkIL0bZDuKtKv0zlFup+THmRH7z1IQQpSkIIUpCAFKUhBClKQghSkIH0bpD1F+i/pUaR7OenJyWCwtwdSkIIUpCAFKUhBClKQghSkIAUpSN8GaT//zcRcUqT9nHQw6PdBClKQghSkIAUpSEEKUpCCFKQgBelbId1TpJ8iamdBp5eT7u87Tq8HUpCCFKQgBSlIQQpSkIIUpCAFKUhrI12heP/f3vn2tm1kXfz98ylmWaCRUYkWJf9v3IWj2E2BJA7sFIuNEQi0OJLoUKRAUraFwt99ORTltRpfkiNdsus+hy8cR1c858eZuTM3ETkK7btGodi9GbuxJy/H9lSasbyPG6/eBbMwKsaYf3/mW3ci/cgNfE9GqUKBxPa2OHEcYYtUSdy58VhEwUQKp1twZnQ7Mu3pVPpOw1DexlbBCcvDtOM4bBj3RlPstTVPmicndcqfFMVzTy7wWrY/GAdhcr7hyaEGbaYxDPy4dSfd0ThWGteB55TXWPTN5bT1YebF/Z6XjNF+p/8pcJKfXz72rf7Z+4u+JS7nUasrzrywlfw+GLfeinefvMEkbvlBmPTLl4/i42nvjXpbLCeiKz5dfhHng4F676utvJ5+vR0NQnca/0K+5/W2494+HybPocUSLeE6x8ZApUEvaTnb9WXYt6x9Q6TteWw4bjT17PmR63tJrHXtBYNvPxs0YKK6uAYRz6fJ+apJt2/sW3vxau6Z6ri1QzVkxbFw3MnUk6Yv7y5vRw3jh2cgm2Kn3U5/FOag0nXs2E6Er/4wPPtaesaR4cihnXS1mIbB0PWk0VxE+vfGkWW2m8at7c1k9vtATVXJOcns0+udnhoPzVI6HSadLpPODpPOLpPOHpPOPpPOAZPOIZOO1eYS4hrRFteQtrjGtMU1qC2uUW1xDWuLa1xbXAPb4hrZHa6R3WGbq7lGdodrZHe0RraIZpPJyndXl1rRQuloyJBtpCdDtpCeDNk+ejJk3uvJkFmvJ0PmvJ4MmfF6MmS+68nQC5mmDtM4ppcxTR2mkUwvYpo6TGOZXsI0dZhGM72AaeowjWd6+dLU4ZqXmcYzvXZp6pQfz3euH+svW9fqpfI6ZPNo6pDNo6lDNo+mDpnumjpkumvqkOmuqUOmu6YOme6aOvT6pSvENaLpFUxXiGtM02uYrhDXqKZXMV0hrnFNr2O6Qlwjm17JdIXY5mqukU0vZrpC5Uf244cZhV82TC1z7ZV/6C2+jZjBolO9Rbd6i53qLXart9ir3mK/eouD6i0Oq7dYWdmr8qghv60aEtyqIcOtGlLcqiHHrRqS3Kohy60a0tyqIc87NeR5p451vIY879SQ55318rzwOx3LlVWLL31ksKB7g82C7gw2C7ov2CzoKZfNgp5x2SzoCZfNgp5v2Szo6ZbNIqes4vOoIb9zyio+jxoyPKes4vOoIcdzyio+jxqyPKes4vOoIc9zyio+jzrW8RryPKes4vNYL88LvzqrXFm1+G4tBgu6N9gs6M5gs6D7gs2CnnLZLOgZl82CnnDZLOj5ls2Cnm7ZLHJuCOTzoO+o4vOgb7bi86Dvw+LzoG/R4vOg70vk86BvWeTzoO9m5POgb3Tk86ghz3Nuj+TzqCHPc26q5POoYSXPKavyPAq/oaRcWbX4ChMGC7qsYrOgO4PNgu4LNgu6rGKzoMsqNgu6rGKzoMsqNgt6umWzyCmr+Dzo6ZbPg55u+TzosorPgy6r+DzosorPgy6r+DzosorPgy6r+DxqyPOcsorPo4Y8zymr+DxqWMlzyqo8j8KN4MuVVYud4hks6LKKzYLuDDYLui/YLOiyis2CLqvYLOiyis2CLqvYLOjpls0ip6zi86CnWz4Perrl86DLKj4Puqzi86DLKj4Puqzi86DLKj4Puqzi86ghz3PKKj6PGvI8p6zi86hhJc8pq/I8CvfbLVdWLTbkZbCgyyo2C7oz2CzovmCzoMsqNgu6rGKzoMsqNgu6rGKzoKdbNoucsorPg55u+Tzo6ZbPgy6r+DzosorPgy6r+DzosorPgy6r+DzosorPo4Y8zymr+DxqyPOcsorPo4aVPKesyvMo3NawXFm12PeQwYIuq9gs6M5gs6D7gs2CLqvYLOiyis2CLqvYLOiyis2Cnm7ZLHI3W+PyyNutissjbyMrLo+8Pa64PPK2v+LyyNvzjcsjbzs4Lo+8neK4PPI2kePyqCHPc7ee4/KoIc9zN6zj8qhhJc8pq5YeX8vs8Jrt6CyOhS/vljvIphvHNqLbUTPdAbZwq9jlttCRjN8EM9+JGrvtprCs3aboqt86u+W2m71PMB53u3acnh3LURDOT+7daLGt8uP1l9h7OhE4Dx0ZXszULselT1Qc81WOD9KOZqFcYKiNmrN2r3jfb4QRRhhhhBFGGGGEEUYYYYQRRhhhhBFGGGGEEUYYYYQRRhhhhBFGGGGEEUYYYYQRRhhhhBFGGGGEEUYYYYQRRhhhhBFGGGGE/1bhuRncyjB0HfnBVg/WWmZ7w+dV1aOx0eqjsZcydGWUPV5rNJcPEE+9IDY915eFj8hGzz2nW/xkbWSmXz0/DTw7dgM/gTKiWE5b13IYhNIo9+TzezmSvrN6QYvXGnvtpuiqJ5fb6kFm9cPw5DBWYAXSS1mzP5LxqR+r9kkshjN/kJI2tsQfBRJLQvl49lXhs9zqcIeiEY/dyIzSXilnpI4nJ5lJ+53ag3Hjv8C6akt89eh4wp7p9qdB5CrBt8nLZa5meSiZZ6jC4E4PaYnl+o5U+dCymppnL4+bdU8cutJT462RtekiT0ZhMJtKR/z4o/hH9vq92R/bUfb8u0qwrafR+bPRpEFMezQ6Ux6mJ/1RPBavRUf8UxgnnmeIo9V3RJ47kI2WtXXV/rpVmG/fXUkQisZNcintn8VNYpMN1cxXvfZTMuPod5A61DDO9K5uvprf5FwcHx8vGm89xVQ16/Yb3UtdHtehtL+tc/KD5jm671ftlV3dsRrWajBkIyXdyMHs21Hkjnzp9NQWEdFV2pJf12vKZUdPZ9G4sW5fJF16tOjP9TPJ847KXKWp3rmuSxSHwTdZzmfx3nWdgqk9cON5OavszWtfVWqxtFpXZTmRrE4r66SH9uSjjmU6r048oiUsXTWddCvP+tBMV9VS738oqinUsb0tPv3+Wfz7/PcLcXl+8fm3j7+K9+e//tYT704vTssJnCWztry3VYkm4kBEQRgLfzZJxsFApFuaRMKOBknx4vqjEorLtlc6T1Zmuymuy08uoYxnoS+mdhjJMy+w44atpvytpCufvHadvlaqMYtLtCe22SUUCT9Uu9PLY/2Zpnua7I1XjhzaMy8W0zBI5jD5qile/XBw0Oudnr6qeOMZ4AAHOMABDnCAAxzgAAc4wPl74ohoNkn+CSwcqV4Ujj1XRKF0QAMa0IAGNKABDWhAAxrQgAY0+TR36a1Zf6K59mYSOMABDnCAAxzgAAc4wAEOcICzDs7j9wZa6nsDL2fU9wZ2rfQTtpOTnZ3DQ5CCFKQgBSlIQQpSkIIUpCAFKUhB+jJIOympHVOk7ZS02+10DvZAClKQghSkIAUpSEEKUpCCFKQgBenLIO0q0rPQJUg7hympZe3vd7sgBSlIQQpSkIIUpCAFKUhBClKQgvRlkO4o0s/jGUV6kJIeJsfuG5CCFKQgBSlIQQpSkIIUpCAFKUhB+jJIdxXpv6RDke6npG/f9nr7+yAFKUhBClKQghSkIAUpSEEKUpCC9GWQ7qX/MzGTFOleStrr7e2BFKQgBSlIQQpSkIIUpCAFKUhBCtKXQrqvSD8E1M6Cnd2U9OCg09ndBSlIQQpSkIIUpCAFKUhBClKQghSktZEuUZzQvmsUit2bsRt78nJsT6UZy/u48epdMAujYoz592e+dSfSj9zA92SUKhRIbG+LE8cRtkiVxJ0bj0UUTKRwugVnRrcj055Ope80DOVtbBWcsDxMO47DhnFvNMVeW/OkeXJSp/xJUTz35AKvZfuDcRAm5xueHGrQZhrDwI9bd9IdjWOlcR14TnmNRd9cTlsfZl7c73nJGO13+p8Cp9/tf/nYt/pn7y/6lricR62uOPPCVvL7YNx6K9598gaTuOUHYdIvXz6Kj6e9N+ptsZyIrvh0+UWcDwbqva+28nr69XY0CN1p/Av5ntfbjnv7fJg8hxZLtITrHBsDlQa9pOVs15dh37IODJG257HhuNHUs+dHru8lsda1Fwy+/WzQgInq4hpEPJ8m56sm3b6xb+3Fq7lnquPWDtWQFcfCcSdTT5q+vLu8HTWMH56BbIqddjv9UZiDStexYzsRvvrD8Oxr6RlHhiOHdtLVYhoGQ9eTRnMR6d8bR5bZbhq3tjeT2e8DNVUl5ySzT693emo8NEvpdJh0ukw6O0w6u0w6e0w6+0w6B0w6h0w6VptLiGtEW1xD2uIa0xbXoLa4RrXFNawtrnFtcQ1si2tkd7hGdodtruYa2R2ukd3RGtkimk0mK99dXWpFC6WjIUO2kZ4M2UJ6MmT76MmQea8nQ2a9ngyZ83oyZMbryZD5ridDL2SaOkzjmF7GNHWYRjK9iGnqMI1legnT1GEazfQCpqnDNJ7p5UtTh2teZhrP9NqlqVN+PN+5fqy/bF2rl8rrkM2jqUM2j6YO2TyaOmS6a+qQ6a6pQ6a7pg6Z7po6ZLpr6tDrl64Q14imVzBdIa4xTa9hukJco5pexXSFuMY1vY7pCnGNbHol0xVim6u5Rja9mOkKlR/Zjx9mFH7ZMLXMtVf+obf4NmIGi071Ft3qLXaqt9it3mKveov96i0Oqrc4rN5iZWWvyqOG/LZqSHCrhgy3akhxq4Yct2pIcquGLLdqSHOrhjzv1JDnnTrW8RryvFNDnnfWy/PC73QsV1YtvvSRwYLuDTYLujPYLOi+YLOgp1w2C3rGZbOgJ1w2C3q+ZbOgp1s2i5yyis+jhvzOKav4PGrI8Jyyis+jhhzPKav4PGrI8pyyis+jhjzPKav4POpYx2vI85yyis9jvTwv/OqscmXV4ru1GCzo3mCzoDuDzYLuCzYLespls6BnXDYLesJls6DnWzYL+t4oNoucGwL5POg7qvg86Jut+Dzo+7D4POhbtPg86PsS+TzoWxb5POi7Gfk86Bsd+TxqyPOcsorPo451vIaFPKes4vNYbykv/IaScmXV4itMGCzo3mCzoDuDzYLuCzYLuqxis6DLKjYLuqxis6DLKjYLerpls8gpq/g86LKKz4Muq/g86LKKz4Muq/g86LKKz4Muq/g86LKKz4Muq/g8asjznLKKz6OOdbyGhTynrOLzWG8pL9wIvlxZtdgpnsGC7g02C7oz2CzovmCzoMsqNgu6rGKzoMsqNgu6rGKzoKdbNoucsorPgy6r+DzosorPgy6r+DzosorPgy6r+DzosorPgy6r+DzosorPo4Y8zymr+DzqWMdrWMhzyio+j/WW8sL9dsuVVYsNeRks6N5gs6A7g82C7gs2C7qsYrOgyyo2C7qsYrOgyyo2C3q6ZbPIKav4POiyis+DLqv4POiyis+DLqv4POiyis+DLqv4POiyis+DLqv4PGrI85yyis+jjnW8hoU8p6zi81hvKS/c1rBcWbXY95DBgu4NNgu6M9gs6L5gs6DLKjYLuqxis6DLKjYLuqxis8jbd4rJInezNS6PvN2quDzyNrLi8sjb44rLI2/7Ky6PvD3fuDzytoPj8sjbKY7LI28TOS6PGvI8p6zi86hjHa9hIc8pq/g8ipfyr2V2eM12dBbHwpd3yx1k041jG9HtqJnuAFu4VexyW+hIxm+Cme9Ejd12U1jWblN01W+d3XLbzd4nGI+7XTtOz47lKAjnJ/dutNhW+fH6S+w9nQich44ML2Zql+PSJyqO+SrHB2lHs1AuMNRGzVm7V7zvN8III4wwwggjjDDCCCOMMMIII4wwwggjjDDCCCOMMMIII4wwwggjjDDCCCOMMMIII4wwwggjjDDCCCOMMMIII4wwwggjjDDCf6vw3AxuZRi6jvxgqwdrLbO94fOq6tHYaPXR2EsZujLKHq81mssHiKdeEJue68vCR2Sj557TLX6yNjLTr56fBp4du4GfQBlRLKetazkMQmmUe/L5vRxJ31m9oMVrjb12U3TVk8tt9SCz+mF4chgrsALppazZH8n41I9V+yQWw5k/SEkbW+KPAokloXw8+6rwWW51uEPRiMduZEZpr5QzUseTk8yk/U7twbjxX2BdtSW+enQ8Yc90+9MgcpXg2+TlMlezPJTMM1RhcKeHtMRyfUeqfGhZTc2zl8fNuicOXemp8dbI2nSRJ6MwmE2lI378Ufwje/3e7I/tKHv+XSXY1tPo/Nlo0iCmPRqdKQ/Tk/4oHovXoiP+KYwTzzPE0eo7Is8dyEbL2rpqf90qzLfvriQIReMmuZT2z+ImscmGauarXvspmXH0O0gdahhnelc3X81vci6Oj48XjbeeYqqadfuN7qUuj+tQ2t/WOflB8xzd96v2yq7uWA1rNRiykZJu5GD27ShyR750emqLiOgqbcmv6zXlsqOns2jcWLcvki49WvTn+pnkeUdlrtJU71zXJYrD4Jss57N477pOwdQeuPG8nFX25rWvKrVYWq2rspxIVqeVddJDe/JRxzKdVyce0RKWrppOupVnfWimq2qp9z8U1RTq2N4Wn37/LP59/vuFuDy/+Pzbx1/F+/Nff+uJd6cXp+UEzpJZW97bqkQTcSCiIIyFP5sk42Ag0i1NImFHg6R4cf1RCcVl2yudJyuz3RTX5SeXUMaz0BdTO4zkmRfYccNWU/5W0pVPXrtOXyvVmMUl2hPb7BKKhB+q3enlsf5M0z1N9sYrRw7tmReLaRgkc5h81RSvfjg46PVOT19VvPEMcIADHOAABzjAAQ5wgAMc4Pw9cUQ0myT/BBaOVC8Kx54rolA6oAENaEADGtCABjSgAQ1oQAOafJq79NasP9FcezMJHOAABzjAAQ5wgAMc4AAHOMBZB+fxewMt9b2BlzPqewO7VvoJ28nJzs7hIUhBClKQghSkIAUpSEEKUpCCFKQgfRmknZTUjinSdkra7XY6B3sgBSlIQQpSkIIUpCAFKUhBClKQgvRlkHYV6VnoEqSdw5TUsvb3u12QghSkIAUpSEEKUpCCFKQgBSlIQfoySHcU6efxjCI9SEkPk2P3DUhBClKQghSkIAUpSEEKUpCCFKQgfRmku4r0X9KhSPdT0rdve739fZCCFKQgBSlIQQpSkIIUpCAFKUhB+jJI99L/mZhJinQvJe319vZAClKQghSkIAUpSEEKUpCCFKQgBelLId1XpB8CamfBzm5KenDQ6ezughSkIAUpSEEKUpCCFKQgBSlIQQrS2kiXKE5o3zUKxe7N2I09eTm2p9KM5X3cePUumIVRMcb8+zPfuhPpR27gezJKFQoktrfFieMIW6RK4s6NxyIKJlI43YIzo9uRaU+n0ncahvI2tgpOWB6mHcdhw7g3mmKvrXnSPDmpU/6kKJ57coHXsv3BOAiT8w1PDjVoM41h4MetO+mOxrHSuA48p7zGom8up63z4dAdyKj/5WPf6p+9v+hb4nIetbrizAtbye+DcetEvPvkDSZxS9pRLL58FB9Pe2/Uu2I5EV3x6fKLOB8M1FtfbeX17uvtaBC60/gX8j2vtx339vkweQ4tlmgJ1zk2Bmro95LWsl1fhn3LOjRE2obHhuNGU8+eH7m+l8Ra114w+PazQQMmqotrEPF8mpyvmnH7xr61F6/mnqmOWztUw1QcC8edTD1p+vLu8nbUMH54BrIpdtrt9Edh3ildx47tRPjqD8Ozr6VnHBmOHNozLxbTMBi6njSai0j/3jiyzHbTuLW9mTSO9g7NwyfHwWHTGKjJKlFI5p9e7/TUeGiWUu1UotqtRHWnEtXdSlT3KlHdr0T1oBLVw0pUrXY1stVkl1VNelnV5JdVTYJZ1WSYVU2KWdXkmFVNklnVZFmnmizrVLSGVZNlnWqyrLNBloloNpmsfP/3GhVCKB0N0ZJtqydasmX1REu2q55oyblLT7TkzKUnWnLe0hMtOWvpiZacs/REyxYGmqqV5FTZskBTtZKsKlsUaKpWkldlSwJN1Uoyq2xBoKlaSW6VLQc0VatZryrJrbK1gKbqurl15/rxpmXAtXpDedWSzaqpWrJZNVVLNqumaskpS1O15JSlqVpyytJULTllaaqWnLI0VcvWA7qy1WRX2YpAV7aa/CpbE+jKVpNhZasCXdlqcqxsXaArW02Wla0MdGUrWsOqybKyxYGurFaWfS3zgUP2oaI4Fr68W36gkX6O0YhuR830A4nCTy6Wn0xGMn4TzHwnauy2m8Kydpuiq37r7Jb79OM+wXj8wNVxenYsR0E4P7l3o8Une49NUeLjz0TgPHRkeDFTH7SVPlFxzFc5Pkg7moVygaE+K8y6YNMPdNMPklatLmXoyijDTZyyDpl6QWyqT7cKLaPnrruYNDLTcTcNPDt2Az+BMqJYTlvXchiE0ig3kt7LkfSd1QtavNbYS0ZBV40E9WGYpX5kn5cWfpS8lDX7Ixmf+rFqn8RiOPMHKWljS/xR4gNTRSgfz74qzA11uEPRiMdulIxrdV45I3U8OclM2u/UHowb/wXWVVviZ58NZrr9aRC5SvBt8nKZq1keSuYZqjC400NaYrm+I1Xitqym5tnL42bdE4eu9NR4a2RtusiTURjMptIRP/4o/pG9fm/2x3aUzScqwbaeRufPRpMGMe3R6Ex5mJ70R/FYvBYd8U9hnHieIY5W3xF57kA2WtbWVfvrVmG+fXclQSgaN8mltH8WN4lNNlQzX/XaT8fC0u8gdahhnOld3Xw1v8lkejs+XjTeeoqpatbtN7qXujyuQ2l/W+fkB81zdN+v2iu7umM1rNVgyEZKujCa/cXNQNJJbweKrtKW/LpeUy47ejqLxo11+yLp0qNFf66fSZ53VOYqTfXOdV2iOAy+yXI+i/eu6xRM7YEbz8tZZW9e+6pSi6XVuirLiWR1WlknPbQnH3Us03l14hEtYemq6aRbedaHZrqqlnr/Q1FNoY7tbfHp98/i3+e/X4jL84vPv338Vbw///W3nnh3enFaTuAsmbXlva1KNBEHIgqSQtqfTZJxMBBpiRgJOxokxYvrj0ooLtte6TxZme2muC4/uYQynoW+mNphJM+8wI4btpryt5KufPLadfpaqcYsLtGe2GaXUCT88BfctPmnD2CzOzPVB6p/yT2kwAEOcIADHOAABzjAAQ5wgPPicb6/wUURhdIBDWhAAxrQgAY0oAENaEADGtDk03x3S6CiUbf4AQc4wAEOcIADHOAABzjAAQ5w/sKtEj/LyVSGdjwLpWicbWGzxP+pzRL/ZasR906mf5xMrl3px0J1mdr5UDqzpP1bYr999jI2Qey0X8AmiAlkXZsgpo+errsJE5NOl0lnh0lnl0lnj0lnn0nngEnnkElnZXeBjYS4RrTFNaQtrjFtcQ1qi2tUW1zD2uIa1xbXwLa4RnaHa2R32OZqrpHd4RrZHa2RXX7TvhWp9bfp20CGbKH1t+LbQIbM+/W329tAhsz59bfU20CGzPcNts3bRIdpHNPL2Aab4W2iwzSU6TVsgy3uNtFhGs30ArbBxnWbzINM45levTbYjm4THabxTC9d628ytyKzwbZym+iQzbPB1nGb6JDpvsH2cJvokOm+wRZwm+iQ6b7JNm8bCXGNaHoF22Tzto2EuAY1vYhtsiXbRkJc45pexzbZaG2jmZFrZNNL2Sbbp20kxDWy6dUMm6K9iE3REEYYYYQRRhhhhBFGGGGEEUYYYYQR/l8Kz83gVoah68gPtvqPKstsY1P8J1eCTfEfD2yKr3VgU3xsiq9xYFP8Px/YFP/PBzbF1zywKT42xX/2wKb4wAEOcIADHOAABzjAAQ5wgAOcl7ClJGhAAxrQgAY0oAENaEADGtC8HJr/N1tZAgc4wAEOcIADHOAABzjAAc76fn/Bpvhv3Yn0IzfwPRlF2BL/f2tL/CD8Jk6HQ3fgSn8wf9wIv94t8LN3/yny9O/L3xd/Pqpnvzz+cR04c/XnOJ54v/zffwBd3tCu"
               },
               {
                  "name" : "annual_peak_electric_demand",
                  "units" : "kW",
                  "value" : 268.83542999999997
               },
               {
                  "name" : "first_year_capital_cost",
                  "units" : "$",
                  "value" : 0
               },
               {
                  "name" : "annual_utility_cost",
                  "units" : "$",
                  "value" : 0
               },
               {
                  "name" : "total_lifecycle_cost",
                  "units" : "$",
                  "value" : 0
               }
            ],
            "step_warnings" : []
         }
      }
   ],
   "updated_at" : "20170710T183343Z",
   "weather_file" : "USA_CO_Denver.Intl.AP.725650_TMY3.epw"
}
