{
   "completed_at" : "20170710T191525Z",
   "completed_status" : "Success",
   "created_at" : "2017-07-10 18:58:13 +0000",
   "current_step" : 5,
   "description" : "",
   "eplusout_err" : "Program Version,EnergyPlus, Version 8.7.0-78a111df4a, YMD=2017.07.10 19:03,IDD_Version 8.7.0\n   ************* IDF Context for following error/warning message:\n   ************* Note -- lines truncated at 300 characters, if necessary...\n   *************      5 Building,\n   ************* indicated Name=NECB 2011-HighriseApartment-NECB HDD Method-CAN_NB_Fredericton.717000_CWEC.epw created: 2017-07-10 18:58:22 +0000\n   ************* Only last 1 lines before error line shown.....\n   *************      6   NECB 2011-HighriseApartment-NECB HDD Method-CAN_NB_Fredericton.717000_CWEC.epw created: 2017-07-10 18:58:22 +0000, !- Name\n   ** Warning ** IP: IDF line~6 Alpha Argument length exceeds maximum, will be truncated=  NECB 2011-HighriseApartment-NECB HDD Method-CAN_NB_Fredericton.717000_CWEC.epw created: 2017-07-10 18:58:22 +000\n   **   ~~~   ** Will be processed as Alpha=NECB 2011-HIGHRISEAPARTMENT-NECB HDD METHOD-CAN_NB_FREDERICTON.717000_CWEC.EPW CREATED: 2017-07-10 18:58:22 +0000\n   ************* Beginning Zone Sizing Calculations\n   ** Warning ** ProcessScheduleInput: Schedule:Day:Interval=\"ECONOMIZER MAX OA FRACTION 100 PCT DEFAULT\", Blank Schedule Type Limits Name input -- will not be validated.\n   ** Warning ** ProcessScheduleInput: Schedule:Day:Interval=\"SCHEDULE DAY 1\", Blank Schedule Type Limits Name input -- will not be validated.\n   ** Warning ** ProcessScheduleInput: Schedule:Day:Interval=\"SCHEDULE DAY 10\", Blank Schedule Type Limits Name input -- will not be validated.\n   ** Warning ** ProcessScheduleInput: Schedule:Day:Interval=\"SCHEDULE DAY 100\", Blank Schedule Type Limits Name input -- will not be validated.\n   ** Warning ** ProcessScheduleInput: Schedule:Day:Interval=\"SCHEDULE DAY 101\", Blank Schedule Type Limits Name input -- will not be validated.\n   ** Warning ** ProcessScheduleInput: Schedule:Day:Interval=\"SCHEDULE DAY 102\", Blank Schedule Type Limits Name input -- will not be validated.\n   ** Warning ** ProcessScheduleInput: Schedule:Day:Interval=\"SCHEDULE DAY 103\", Blank Schedule Type Limits Name input -- will not be validated.\n   ** Warning ** ProcessScheduleInput: Schedule:Day:Interval=\"SCHEDULE DAY 104\", Blank Schedule Type Limits Name input -- will not be validated.\n   ** Warning ** ProcessScheduleInput: Schedule:Day:Interval=\"SCHEDULE DAY 105\", Blank Schedule Type Limits Name input -- will not be validated.\n   ** Warning ** ProcessScheduleInput: Schedule:Day:Interval=\"SCHEDULE DAY 106\", Blank Schedule Type Limits Name input -- will not be validated.\n   ** Warning ** ProcessScheduleInput: Schedule:Day:Interval=\"SCHEDULE DAY 107\", Blank Schedule Type Limits Name input -- will not be validated.\n   ** Warning ** ProcessScheduleInput: Schedule:Day:Interval=\"SCHEDULE DAY 108\", Blank Schedule Type Limits Name input -- will not be validated.\n   ** Warning ** ProcessScheduleInput: Schedule:Day:Interval=\"SCHEDULE DAY 109\", Blank Schedule Type Limits Name input -- will not be validated.\n   ** Warning ** ProcessScheduleInput: Schedule:Day:Interval=\"SCHEDULE DAY 11\", Blank Schedule Type Limits Name input -- will not be validated.\n   ** Warning ** ProcessScheduleInput: Schedule:Day:Interval=\"SCHEDULE DAY 110\", Blank Schedule Type Limits Name input -- will not be validated.\n   ** Warning ** ProcessScheduleInput: Schedule:Day:Interval=\"SCHEDULE DAY 111\", Blank Schedule Type Limits Name input -- will not be validated.\n   ** Warning ** ProcessScheduleInput: Schedule:Day:Interval=\"SCHEDULE DAY 112\", Blank Schedule Type Limits Name input -- will not be validated.\n   ** Warning ** ProcessScheduleInput: Schedule:Day:Interval=\"SCHEDULE DAY 113\", Blank Schedule Type Limits Name input -- will not be validated.\n   ** Warning ** ProcessScheduleInput: Schedule:Day:Interval=\"SCHEDULE DAY 114\", Blank Schedule Type Limits Name input -- will not be validated.\n   ** Warning ** ProcessScheduleInput: Schedule:Day:Interval=\"SCHEDULE DAY 115\", Blank Schedule Type Limits Name input -- will not be validated.\n   ** Warning ** ProcessScheduleInput: Schedule:Day:Interval=\"SCHEDULE DAY 116\", Blank Schedule Type Limits Name input -- will not be validated.\n   ** Warning ** ProcessScheduleInput: Schedule:Day:Interval=\"SCHEDULE DAY 117\", Blank Schedule Type Limits Name input -- will not be validated.\n   ** Warning ** ProcessScheduleInput: Schedule:Day:Interval=\"SCHEDULE DAY 118\", Blank Schedule Type Limits Name input -- will not be validated.\n   ** Warning ** ProcessScheduleInput: Schedule:Day:Interval=\"SCHEDULE DAY 119\", Blank Schedule Type Limits Name input -- will not be validated.\n   ** Warning ** ProcessScheduleInput: Schedule:Day:Interval=\"SCHEDULE DAY 12\", Blank Schedule Type Limits Name input -- will not be validated.\n   ** Warning ** ProcessScheduleInput: Schedule:Day:Interval=\"SCHEDULE DAY 120\", Blank Schedule Type Limits Name input -- will not be validated.\n   ** Warning ** ProcessScheduleInput: Schedule:Day:Interval=\"SCHEDULE DAY 121\", Blank Schedule Type Limits Name input -- will not be validated.\n   ** Warning ** ProcessScheduleInput: Schedule:Day:Interval=\"SCHEDULE DAY 122\", Blank Schedule Type Limits Name input -- will not be validated.\n   ** Warning ** ProcessScheduleInput: Schedule:Day:Interval=\"SCHEDULE DAY 123\", Blank Schedule Type Limits Name input -- will not be validated.\n   ** Warning ** ProcessScheduleInput: Schedule:Day:Interval=\"SCHEDULE DAY 124\", Blank Schedule Type Limits Name input -- will not be validated.\n   ** Warning ** ProcessScheduleInput: Schedule:Day:Interval=\"SCHEDULE DAY 125\", Blank Schedule Type Limits Name input -- will not be validated.\n   ** Warning ** ProcessScheduleInput: Schedule:Day:Interval=\"SCHEDULE DAY 126\", Blank Schedule Type Limits Name input -- will not be validated.\n   ** Warning ** ProcessScheduleInput: Schedule:Day:Interval=\"SCHEDULE DAY 127\", Blank Schedule Type Limits Name input -- will not be validated.\n   ** Warning ** ProcessScheduleInput: Schedule:Day:Interval=\"SCHEDULE DAY 128\", Blank Schedule Type Limits Name input -- will not be validated.\n   ** Warning ** ProcessScheduleInput: Schedule:Day:Interval=\"SCHEDULE DAY 129\", Blank Schedule Type Limits Name input -- will not be validated.\n   ** Warning ** ProcessScheduleInput: Schedule:Day:Interval=\"SCHEDULE DAY 13\", Blank Schedule Type Limits Name input -- will not be validated.\n   ** Warning ** ProcessScheduleInput: Schedule:Day:Interval=\"SCHEDULE DAY 130\", Blank Schedule Type Limits Name input -- will not be validated.\n   ** Warning ** ProcessScheduleInput: Schedule:Day:Interval=\"SCHEDULE DAY 131\", Blank Schedule Type Limits Name input -- will not be validated.\n   ** Warning ** ProcessScheduleInput: Schedule:Day:Interval=\"SCHEDULE DAY 132\", Blank Schedule Type Limits Name input -- will not be validated.\n   ** Warning ** ProcessScheduleInput: Schedule:Day:Interval=\"SCHEDULE DAY 133\", Blank Schedule Type Limits Name input -- will not be validated.\n   ** Warning ** ProcessScheduleInput: Schedule:Day:Interval=\"SCHEDULE DAY 134\", Blank Schedule Type Limits Name input -- will not be validated.\n   ** Warning ** ProcessScheduleInput: Schedule:Day:Interval=\"SCHEDULE DAY 135\", Blank Schedule Type Limits Name input -- will not be validated.\n   ** Warning ** ProcessScheduleInput: Schedule:Day:Interval=\"SCHEDULE DAY 136\", Blank Schedule Type Limits Name input -- will not be validated.\n   ** Warning ** ProcessScheduleInput: Schedule:Day:Interval=\"SCHEDULE DAY 137\", Blank Schedule Type Limits Name input -- will not be validated.\n   ** Warning ** ProcessScheduleInput: Schedule:Day:Interval=\"SCHEDULE DAY 138\", Blank Schedule Type Limits Name input -- will not be validated.\n   ** Warning ** ProcessScheduleInput: Schedule:Day:Interval=\"SCHEDULE DAY 139\", Blank Schedule Type Limits Name input -- will not be validated.\n   ** Warning ** ProcessScheduleInput: Schedule:Day:Interval=\"SCHEDULE DAY 14\", Blank Schedule Type Limits Name input -- will not be validated.\n   ** Warning ** ProcessScheduleInput: Schedule:Day:Interval=\"SCHEDULE DAY 140\", Blank Schedule Type Limits Name input -- will not be validated.\n   ** Warning ** ProcessScheduleInput: Schedule:Day:Interval=\"SCHEDULE DAY 141\", Blank Schedule Type Limits Name input -- will not be validated.\n   ** Warning ** ProcessScheduleInput: Schedule:Day:Interval=\"SCHEDULE DAY 142\", Blank Schedule Type Limits Name input -- will not be validated.\n   ** Warning ** ProcessScheduleInput: Schedule:Day:Interval=\"SCHEDULE DAY 143\", Blank Schedule Type Limits Name input -- will not be validated.\n   ** Warning ** ProcessScheduleInput: Schedule:Day:Interval=\"SCHEDULE DAY 144\", Blank Schedule Type Limits Name input -- will not be validated.\n   ** Warning ** ProcessScheduleInput: Schedule:Day:Interval=\"SCHEDULE DAY 145\", Blank Schedule Type Limits Name input -- will not be validated.\n   ** Warning ** ProcessScheduleInput: Schedule:Day:Interval=\"SCHEDULE DAY 146\", Blank Schedule Type Limits Name input -- will not be validated.\n   ** Warning ** ProcessScheduleInput: Schedule:Day:Interval=\"SCHEDULE DAY 147\", Blank Schedule Type Limits Name input -- will not be validated.\n   ** Warning ** ProcessScheduleInput: Schedule:Day:Interval=\"SCHEDULE DAY 148\", Blank Schedule Type Limits Name input -- will not be validated.\n   ** Warning ** ProcessScheduleInput: Schedule:Day:Interval=\"SCHEDULE DAY 149\", Blank Schedule Type Limits Name input -- will not be validated.\n   ** Warning ** ProcessScheduleInput: Schedule:Day:Interval=\"SCHEDULE DAY 15\", Blank Schedule Type Limits Name input -- will not be validated.\n   ** Warning ** ProcessScheduleInput: Schedule:Day:Interval=\"SCHEDULE DAY 150\", Blank Schedule Type Limits Name input -- will not be validated.\n   ** Warning ** ProcessScheduleInput: Schedule:Day:Interval=\"SCHEDULE DAY 151\", Blank Schedule Type Limits Name input -- will not be validated.\n   ** Warning ** ProcessScheduleInput: Schedule:Day:Interval=\"SCHEDULE DAY 152\", Blank Schedule Type Limits Name input -- will not be validated.\n   ** Warning ** ProcessScheduleInput: Schedule:Day:Interval=\"SCHEDULE DAY 153\", Blank Schedule Type Limits Name input -- will not be validated.\n   ** Warning ** ProcessScheduleInput: Schedule:Day:Interval=\"SCHEDULE DAY 154\", Blank Schedule Type Limits Name input -- will not be validated.\n   ** Warning ** ProcessScheduleInput: Schedule:Day:Interval=\"SCHEDULE DAY 155\", Blank Schedule Type Limits Name input -- will not be validated.\n   ** Warning ** ProcessScheduleInput: Schedule:Day:Interval=\"SCHEDULE DAY 156\", Blank Schedule Type Limits Name input -- will not be validated.\n   ** Warning ** ProcessScheduleInput: Schedule:Day:Interval=\"SCHEDULE DAY 157\", Blank Schedule Type Limits Name input -- will not be validated.\n   ** Warning ** ProcessScheduleInput: Schedule:Day:Interval=\"SCHEDULE DAY 158\", Blank Schedule Type Limits Name input -- will not be validated.\n   ** Warning ** ProcessScheduleInput: Schedule:Day:Interval=\"SCHEDULE DAY 159\", Blank Schedule Type Limits Name input -- will not be validated.\n   ** Warning ** ProcessScheduleInput: Schedule:Day:Interval=\"SCHEDULE DAY 16\", Blank Schedule Type Limits Name input -- will not be validated.\n   ** Warning ** ProcessScheduleInput: Schedule:Day:Interval=\"SCHEDULE DAY 160\", Blank Schedule Type Limits Name input -- will not be validated.\n   ** Warning ** ProcessScheduleInput: Schedule:Day:Interval=\"SCHEDULE DAY 161\", Blank Schedule Type Limits Name input -- will not be validated.\n   ** Warning ** ProcessScheduleInput: Schedule:Day:Interval=\"SCHEDULE DAY 162\", Blank Schedule Type Limits Name input -- will not be validated.\n   ** Warning ** ProcessScheduleInput: Schedule:Day:Interval=\"SCHEDULE DAY 163\", Blank Schedule Type Limits Name input -- will not be validated.\n   ** Warning ** ProcessScheduleInput: Schedule:Day:Interval=\"SCHEDULE DAY 164\", Blank Schedule Type Limits Name input -- will not be validated.\n   ** Warning ** ProcessScheduleInput: Schedule:Day:Interval=\"SCHEDULE DAY 165\", Blank Schedule Type Limits Name input -- will not be validated.\n   ** Warning ** ProcessScheduleInput: Schedule:Day:Interval=\"SCHEDULE DAY 166\", Blank Schedule Type Limits Name input -- will not be validated.\n   ** Warning ** ProcessScheduleInput: Schedule:Day:Interval=\"SCHEDULE DAY 167\", Blank Schedule Type Limits Name input -- will not be validated.\n   ** Warning ** ProcessScheduleInput: Schedule:Day:Interval=\"SCHEDULE DAY 168\", Blank Schedule Type Limits Name input -- will not be validated.\n   ** Warning ** ProcessScheduleInput: Schedule:Day:Interval=\"SCHEDULE DAY 169\", Blank Schedule Type Limits Name input -- will not be validated.\n   ** Warning ** ProcessScheduleInput: Schedule:Day:Interval=\"SCHEDULE DAY 17\", Blank Schedule Type Limits Name input -- will not be validated.\n   ** Warning ** ProcessScheduleInput: Schedule:Day:Interval=\"SCHEDULE DAY 170\", Blank Schedule Type Limits Name input -- will not be validated.\n   ** Warning ** ProcessScheduleInput: Schedule:Day:Interval=\"SCHEDULE DAY 171\", Blank Schedule Type Limits Name input -- will not be validated.\n   ** Warning ** ProcessScheduleInput: Schedule:Day:Interval=\"SCHEDULE DAY 172\", Blank Schedule Type Limits Name input -- will not be validated.\n   ** Warning ** ProcessScheduleInput: Schedule:Day:Interval=\"SCHEDULE DAY 173\", Blank Schedule Type Limits Name input -- will not be validated.\n   ** Warning ** ProcessScheduleInput: Schedule:Day:Interval=\"SCHEDULE DAY 174\", Blank Schedule Type Limits Name input -- will not be validated.\n   ** Warning ** ProcessScheduleInput: Schedule:Day:Interval=\"SCHEDULE DAY 175\", Blank Schedule Type Limits Name input -- will not be validated.\n   ** Warning ** ProcessScheduleInput: Schedule:Day:Interval=\"SCHEDULE DAY 176\", Blank Schedule Type Limits Name input -- will not be validated.\n   ** Warning ** ProcessScheduleInput: Schedule:Day:Interval=\"SCHEDULE DAY 177\", Blank Schedule Type Limits Name input -- will not be validated.\n   ** Warning ** ProcessScheduleInput: Schedule:Day:Interval=\"SCHEDULE DAY 178\", Blank Schedule Type Limits Name input -- will not be validated.\n   ** Warning ** ProcessScheduleInput: Schedule:Day:Interval=\"SCHEDULE DAY 179\", Blank Schedule Type Limits Name input -- will not be validated.\n   ** Warning ** ProcessScheduleInput: Schedule:Day:Interval=\"SCHEDULE DAY 18\", Blank Schedule Type Limits Name input -- will not be validated.\n   ** Warning ** ProcessScheduleInput: Schedule:Day:Interval=\"SCHEDULE DAY 180\", Blank Schedule Type Limits Name input -- will not be validated.\n   ** Warning ** ProcessScheduleInput: Schedule:Day:Interval=\"SCHEDULE DAY 181\", Blank Schedule Type Limits Name input -- will not be validated.\n   ** Warning ** ProcessScheduleInput: Schedule:Day:Interval=\"SCHEDULE DAY 182\", Blank Schedule Type Limits Name input -- will not be validated.\n   ** Warning ** ProcessScheduleInput: Schedule:Day:Interval=\"SCHEDULE DAY 183\", Blank Schedule Type Limits Name input -- will not be validated.\n   ** Warning ** ProcessScheduleInput: Schedule:Day:Interval=\"SCHEDULE DAY 184\", Blank Schedule Type Limits Name input -- will not be validated.\n   ** Warning ** ProcessScheduleInput: Schedule:Day:Interval=\"SCHEDULE DAY 185\", Blank Schedule Type Limits Name input -- will not be validated.\n   ** Warning ** ProcessScheduleInput: Schedule:Day:Interval=\"SCHEDULE DAY 186\", Blank Schedule Type Limits Name input -- will not be validated.\n   ** Warning ** ProcessScheduleInput: Schedule:Day:Interval=\"SCHEDULE DAY 187\", Blank Schedule Type Limits Name input -- will not be validated.\n   ** Warning ** ProcessScheduleInput: Schedule:Day:Interval=\"SCHEDULE DAY 188\", Blank Schedule Type Limits Name input -- will not be validated.\n   ** Warning ** ProcessScheduleInput: Schedule:Day:Interval=\"SCHEDULE DAY 189\", Blank Schedule Type Limits Name input -- will not be validated.\n   ** Warning ** ProcessScheduleInput: Schedule:Day:Interval=\"SCHEDULE DAY 19\", Blank Schedule Type Limits Name input -- will not be validated.\n   ** Warning ** ProcessScheduleInput: Schedule:Day:Interval=\"SCHEDULE DAY 190\", Blank Schedule Type Limits Name input -- will not be validated.\n   ** Warning ** ProcessScheduleInput: Schedule:Day:Interval=\"SCHEDULE DAY 191\", Blank Schedule Type Limits Name input -- will not be validated.\n   ** Warning ** ProcessScheduleInput: Schedule:Day:Interval=\"SCHEDULE DAY 192\", Blank Schedule Type Limits Name input -- will not be validated.\n   ** Warning ** ProcessScheduleInput: Schedule:Day:Interval=\"SCHEDULE DAY 193\", Blank Schedule Type Limits Name input -- will not be validated.\n   ** Warning ** ProcessScheduleInput: Schedule:Day:Interval=\"SCHEDULE DAY 194\", Blank Schedule Type Limits Name input -- will not be validated.\n   ** Warning ** ProcessScheduleInput: Schedule:Day:Interval=\"SCHEDULE DAY 195\", Blank Schedule Type Limits Name input -- will not be validated.\n   ** Warning ** ProcessScheduleInput: Schedule:Day:Interval=\"SCHEDULE DAY 196\", Blank Schedule Type Limits Name input -- will not be validated.\n   ** Warning ** ProcessScheduleInput: Schedule:Day:Interval=\"SCHEDULE DAY 197\", Blank Schedule Type Limits Name input -- will not be validated.\n   ** Warning ** ProcessScheduleInput: Schedule:Day:Interval=\"SCHEDULE DAY 198\", Blank Schedule Type Limits Name input -- will not be validated.\n   ** Warning ** ProcessScheduleInput: Schedule:Day:Interval=\"SCHEDULE DAY 199\", Blank Schedule Type Limits Name input -- will not be validated.\n   ** Warning ** ProcessScheduleInput: Schedule:Day:Interval=\"SCHEDULE DAY 2\", Blank Schedule Type Limits Name input -- will not be validated.\n   ** Warning ** ProcessScheduleInput: Schedule:Day:Interval=\"SCHEDULE DAY 20\", Blank Schedule Type Limits Name input -- will not be validated.\n   ** Warning ** ProcessScheduleInput: Schedule:Day:Interval=\"SCHEDULE DAY 200\", Blank Schedule Type Limits Name input -- will not be validated.\n   ** Warning ** ProcessScheduleInput: Schedule:Day:Interval=\"SCHEDULE DAY 201\", Blank Schedule Type Limits Name input -- will not be validated.\n   ** Warning ** ProcessScheduleInput: Schedule:Day:Interval=\"SCHEDULE DAY 202\", Blank Schedule Type Limits Name input -- will not be validated.\n   ** Warning ** ProcessScheduleInput: Schedule:Day:Interval=\"SCHEDULE DAY 203\", Blank Schedule Type Limits Name input -- will not be validated.\n   ** Warning ** ProcessScheduleInput: Schedule:Day:Interval=\"SCHEDULE DAY 204\", Blank Schedule Type Limits Name input -- will not be validated.\n   ** Warning ** ProcessScheduleInput: Schedule:Day:Interval=\"SCHEDULE DAY 205\", Blank Schedule Type Limits Name input -- will not be validated.\n   ** Warning ** ProcessScheduleInput: Schedule:Day:Interval=\"SCHEDULE DAY 206\", Blank Schedule Type Limits Name input -- will not be validated.\n   ** Warning ** ProcessScheduleInput: Schedule:Day:Interval=\"SCHEDULE DAY 207\", Blank Schedule Type Limits Name input -- will not be validated.\n   ** Warning ** ProcessScheduleInput: Schedule:Day:Interval=\"SCHEDULE DAY 208\", Blank Schedule Type Limits Name input -- will not be validated.\n   ** Warning ** ProcessScheduleInput: Schedule:Day:Interval=\"SCHEDULE DAY 209\", Blank Schedule Type Limits Name input -- will not be validated.\n   ** Warning ** ProcessScheduleInput: Schedule:Day:Interval=\"SCHEDULE DAY 21\", Blank Schedule Type Limits Name input -- will not be validated.\n   ** Warning ** ProcessScheduleInput: Schedule:Day:Interval=\"SCHEDULE DAY 210\", Blank Schedule Type Limits Name input -- will not be validated.\n   ** Warning ** ProcessScheduleInput: Schedule:Day:Interval=\"SCHEDULE DAY 211\", Blank Schedule Type Limits Name input -- will not be validated.\n   ** Warning ** ProcessScheduleInput: Schedule:Day:Interval=\"SCHEDULE DAY 212\", Blank Schedule Type Limits Name input -- will not be validated.\n   ** Warning ** ProcessScheduleInput: Schedule:Day:Interval=\"SCHEDULE DAY 213\", Blank Schedule Type Limits Name input -- will not be validated.\n   ** Warning ** ProcessScheduleInput: Schedule:Day:Interval=\"SCHEDULE DAY 214\", Blank Schedule Type Limits Name input -- will not be validated.\n   ** Warning ** ProcessScheduleInput: Schedule:Day:Interval=\"SCHEDULE DAY 215\", Blank Schedule Type Limits Name input -- will not be validated.\n   ** Warning ** ProcessScheduleInput: Schedule:Day:Interval=\"SCHEDULE DAY 216\", Blank Schedule Type Limits Name input -- will not be validated.\n   ** Warning ** ProcessScheduleInput: Schedule:Day:Interval=\"SCHEDULE DAY 217\", Blank Schedule Type Limits Name input -- will not be validated.\n   ** Warning ** ProcessScheduleInput: Schedule:Day:Interval=\"SCHEDULE DAY 218\", Blank Schedule Type Limits Name input -- will not be validated.\n   ** Warning ** ProcessScheduleInput: Schedule:Day:Interval=\"SCHEDULE DAY 219\", Blank Schedule Type Limits Name input -- will not be validated.\n   ** Warning ** ProcessScheduleInput: Schedule:Day:Interval=\"SCHEDULE DAY 22\", Blank Schedule Type Limits Name input -- will not be validated.\n   ** Warning ** ProcessScheduleInput: Schedule:Day:Interval=\"SCHEDULE DAY 220\", Blank Schedule Type Limits Name input -- will not be validated.\n   ** Warning ** ProcessScheduleInput: Schedule:Day:Interval=\"SCHEDULE DAY 221\", Blank Schedule Type Limits Name input -- will not be validated.\n   ** Warning ** ProcessScheduleInput: Schedule:Day:Interval=\"SCHEDULE DAY 222\", Blank Schedule Type Limits Name input -- will not be validated.\n   ** Warning ** ProcessScheduleInput: Schedule:Day:Interval=\"SCHEDULE DAY 223\", Blank Schedule Type Limits Name input -- will not be validated.\n   ** Warning ** ProcessScheduleInput: Schedule:Day:Interval=\"SCHEDULE DAY 224\", Blank Schedule Type Limits Name input -- will not be validated.\n   ** Warning ** ProcessScheduleInput: Schedule:Day:Interval=\"SCHEDULE DAY 225\", Blank Schedule Type Limits Name input -- will not be validated.\n   ** Warning ** ProcessScheduleInput: Schedule:Day:Interval=\"SCHEDULE DAY 226\", Blank Schedule Type Limits Name input -- will not be validated.\n   ** Warning ** ProcessScheduleInput: Schedule:Day:Interval=\"SCHEDULE DAY 227\", Blank Schedule Type Limits Name input -- will not be validated.\n   ** Warning ** ProcessScheduleInput: Schedule:Day:Interval=\"SCHEDULE DAY 228\", Blank Schedule Type Limits Name input -- will not be validated.\n   ** Warning ** ProcessScheduleInput: Schedule:Day:Interval=\"SCHEDULE DAY 229\", Blank Schedule Type Limits Name input -- will not be validated.\n   ** Warning ** ProcessScheduleInput: Schedule:Day:Interval=\"SCHEDULE DAY 23\", Blank Schedule Type Limits Name input -- will not be validated.\n   ** Warning ** ProcessScheduleInput: Schedule:Day:Interval=\"SCHEDULE DAY 230\", Blank Schedule Type Limits Name input -- will not be validated.\n   ** Warning ** ProcessScheduleInput: Schedule:Day:Interval=\"SCHEDULE DAY 231\", Blank Schedule Type Limits Name input -- will not be validated.\n   ** Warning ** ProcessScheduleInput: Schedule:Day:Interval=\"SCHEDULE DAY 232\", Blank Schedule Type Limits Name input -- will not be validated.\n   ** Warning ** ProcessScheduleInput: Schedule:Day:Interval=\"SCHEDULE DAY 233\", Blank Schedule Type Limits Name input -- will not be validated.\n   ** Warning ** ProcessScheduleInput: Schedule:Day:Interval=\"SCHEDULE DAY 234\", Blank Schedule Type Limits Name input -- will not be validated.\n   ** Warning ** ProcessScheduleInput: Schedule:Day:Interval=\"SCHEDULE DAY 235\", Blank Schedule Type Limits Name input -- will not be validated.\n   ** Warning ** ProcessScheduleInput: Schedule:Day:Interval=\"SCHEDULE DAY 236\", Blank Schedule Type Limits Name input -- will not be validated.\n   ** Warning ** ProcessScheduleInput: Schedule:Day:Interval=\"SCHEDULE DAY 237\", Blank Schedule Type Limits Name input -- will not be validated.\n   ** Warning ** ProcessScheduleInput: Schedule:Day:Interval=\"SCHEDULE DAY 238\", Blank Schedule Type Limits Name input -- will not be validated.\n   ** Warning ** ProcessScheduleInput: Schedule:Day:Interval=\"SCHEDULE DAY 239\", Blank Schedule Type Limits Name input -- will not be validated.\n   ** Warning ** ProcessScheduleInput: Schedule:Day:Interval=\"SCHEDULE DAY 24\", Blank Schedule Type Limits Name input -- will not be validated.\n   ** Warning ** ProcessScheduleInput: Schedule:Day:Interval=\"SCHEDULE DAY 240\", Blank Schedule Type Limits Name input -- will not be validated.\n   ** Warning ** ProcessScheduleInput: Schedule:Day:Interval=\"SCHEDULE DAY 241\", Blank Schedule Type Limits Name input -- will not be validated.\n   ** Warning ** ProcessScheduleInput: Schedule:Day:Interval=\"SCHEDULE DAY 242\", Blank Schedule Type Limits Name input -- will not be validated.\n   ** Warning ** ProcessScheduleInput: Schedule:Day:Interval=\"SCHEDULE DAY 243\", Blank Schedule Type Limits Name input -- will not be validated.\n   ** Warning ** ProcessScheduleInput: Schedule:Day:Interval=\"SCHEDULE DAY 244\", Blank Schedule Type Limits Name input -- will not be validated.\n   ** Warning ** ProcessScheduleInput: Schedule:Day:Interval=\"SCHEDULE DAY 245\", Blank Schedule Type Limits Name input -- will not be validated.\n   ** Warning ** ProcessScheduleInput: Schedule:Day:Interval=\"SCHEDULE DAY 246\", Blank Schedule Type Limits Name input -- will not be validated.\n   ** Warning ** ProcessScheduleInput: Schedule:Day:Interval=\"SCHEDULE DAY 247\", Blank Schedule Type Limits Name input -- will not be validated.\n   ** Warning ** ProcessScheduleInput: Schedule:Day:Interval=\"SCHEDULE DAY 248\", Blank Schedule Type Limits Name input -- will not be validated.\n   ** Warning ** ProcessScheduleInput: Schedule:Day:Interval=\"SCHEDULE DAY 249\", Blank Schedule Type Limits Name input -- will not be validated.\n   ** Warning ** ProcessScheduleInput: Schedule:Day:Interval=\"SCHEDULE DAY 25\", Blank Schedule Type Limits Name input -- will not be validated.\n   ** Warning ** ProcessScheduleInput: Schedule:Day:Interval=\"SCHEDULE DAY 250\", Blank Schedule Type Limits Name input -- will not be validated.\n   ** Warning ** ProcessScheduleInput: Schedule:Day:Interval=\"SCHEDULE DAY 251\", Blank Schedule Type Limits Name input -- will not be validated.\n   ** Warning ** ProcessScheduleInput: Schedule:Day:Interval=\"SCHEDULE DAY 26\", Blank Schedule Type Limits Name input -- will not be validated.\n   ** Warning ** ProcessScheduleInput: Schedule:Day:Interval=\"SCHEDULE DAY 27\", Blank Schedule Type Limits Name input -- will not be validated.\n   ** Warning ** ProcessScheduleInput: Schedule:Day:Interval=\"SCHEDULE DAY 28\", Blank Schedule Type Limits Name input -- will not be validated.\n   ** Warning ** ProcessScheduleInput: Schedule:Day:Interval=\"SCHEDULE DAY 29\", Blank Schedule Type Limits Name input -- will not be validated.\n   ** Warning ** ProcessScheduleInput: Schedule:Day:Interval=\"SCHEDULE DAY 30\", Blank Schedule Type Limits Name input -- will not be validated.\n   ** Warning ** ProcessScheduleInput: Schedule:Day:Interval=\"SCHEDULE DAY 31\", Blank Schedule Type Limits Name input -- will not be validated.\n   ** Warning ** ProcessScheduleInput: Schedule:Day:Interval=\"SCHEDULE DAY 32\", Blank Schedule Type Limits Name input -- will not be validated.\n   ** Warning ** ProcessScheduleInput: Schedule:Day:Interval=\"SCHEDULE DAY 33\", Blank Schedule Type Limits Name input -- will not be validated.\n   ** Warning ** ProcessScheduleInput: Schedule:Day:Interval=\"SCHEDULE DAY 34\", Blank Schedule Type Limits Name input -- will not be validated.\n   ** Warning ** ProcessScheduleInput: Schedule:Day:Interval=\"SCHEDULE DAY 35\", Blank Schedule Type Limits Name input -- will not be validated.\n   ** Warning ** ProcessScheduleInput: Schedule:Day:Interval=\"SCHEDULE DAY 36\", Blank Schedule Type Limits Name input -- will not be validated.\n   ** Warning ** ProcessScheduleInput: Schedule:Day:Interval=\"SCHEDULE DAY 37\", Blank Schedule Type Limits Name input -- will not be validated.\n   ** Warning ** ProcessScheduleInput: Schedule:Day:Interval=\"SCHEDULE DAY 38\", Blank Schedule Type Limits Name input -- will not be validated.\n   ** Warning ** ProcessScheduleInput: Schedule:Day:Interval=\"SCHEDULE DAY 39\", Blank Schedule Type Limits Name input -- will not be validated.\n   ** Warning ** ProcessScheduleInput: Schedule:Day:Interval=\"SCHEDULE DAY 40\", Blank Schedule Type Limits Name input -- will not be validated.\n   ** Warning ** ProcessScheduleInput: Schedule:Day:Interval=\"SCHEDULE DAY 41\", Blank Schedule Type Limits Name input -- will not be validated.\n   ** Warning ** ProcessScheduleInput: Schedule:Day:Interval=\"SCHEDULE DAY 42\", Blank Schedule Type Limits Name input -- will not be validated.\n   ** Warning ** ProcessScheduleInput: Schedule:Day:Interval=\"SCHEDULE DAY 43\", Blank Schedule Type Limits Name input -- will not be validated.\n   ** Warning ** ProcessScheduleInput: Schedule:Day:Interval=\"SCHEDULE DAY 44\", Blank Schedule Type Limits Name input -- will not be validated.\n   ** Warning ** ProcessScheduleInput: Schedule:Day:Interval=\"SCHEDULE DAY 45\", Blank Schedule Type Limits Name input -- will not be validated.\n   ** Warning ** ProcessScheduleInput: Schedule:Day:Interval=\"SCHEDULE DAY 46\", Blank Schedule Type Limits Name input -- will not be validated.\n   ** Warning ** ProcessScheduleInput: Schedule:Day:Interval=\"SCHEDULE DAY 47\", Blank Schedule Type Limits Name input -- will not be validated.\n   ** Warning ** ProcessScheduleInput: Schedule:Day:Interval=\"SCHEDULE DAY 48\", Blank Schedule Type Limits Name input -- will not be validated.\n   ** Warning ** ProcessScheduleInput: Schedule:Day:Interval=\"SCHEDULE DAY 49\", Blank Schedule Type Limits Name input -- will not be validated.\n   ** Warning ** ProcessScheduleInput: Schedule:Day:Interval=\"SCHEDULE DAY 50\", Blank Schedule Type Limits Name input -- will not be validated.\n   ** Warning ** ProcessScheduleInput: Schedule:Day:Interval=\"SCHEDULE DAY 51\", Blank Schedule Type Limits Name input -- will not be validated.\n   ** Warning ** ProcessScheduleInput: Schedule:Day:Interval=\"SCHEDULE DAY 52\", Blank Schedule Type Limits Name input -- will not be validated.\n   ** Warning ** ProcessScheduleInput: Schedule:Day:Interval=\"SCHEDULE DAY 53\", Blank Schedule Type Limits Name input -- will not be validated.\n   ** Warning ** ProcessScheduleInput: Schedule:Day:Interval=\"SCHEDULE DAY 54\", Blank Schedule Type Limits Name input -- will not be validated.\n   ** Warning ** ProcessScheduleInput: Schedule:Day:Interval=\"SCHEDULE DAY 55\", Blank Schedule Type Limits Name input -- will not be validated.\n   ** Warning ** ProcessScheduleInput: Schedule:Day:Interval=\"SCHEDULE DAY 56\", Blank Schedule Type Limits Name input -- will not be validated.\n   ** Warning ** ProcessScheduleInput: Schedule:Day:Interval=\"SCHEDULE DAY 57\", Blank Schedule Type Limits Name input -- will not be validated.\n   ** Warning ** ProcessScheduleInput: Schedule:Day:Interval=\"SCHEDULE DAY 58\", Blank Schedule Type Limits Name input -- will not be validated.\n   ** Warning ** ProcessScheduleInput: Schedule:Day:Interval=\"SCHEDULE DAY 59\", Blank Schedule Type Limits Name input -- will not be validated.\n   ** Warning ** ProcessScheduleInput: Schedule:Day:Interval=\"SCHEDULE DAY 60\", Blank Schedule Type Limits Name input -- will not be validated.\n   ** Warning ** ProcessScheduleInput: Schedule:Day:Interval=\"SCHEDULE DAY 61\", Blank Schedule Type Limits Name input -- will not be validated.\n   ** Warning ** ProcessScheduleInput: Schedule:Day:Interval=\"SCHEDULE DAY 62\", Blank Schedule Type Limits Name input -- will not be validated.\n   ** Warning ** ProcessScheduleInput: Schedule:Day:Interval=\"SCHEDULE DAY 63\", Blank Schedule Type Limits Name input -- will not be validated.\n   ** Warning ** ProcessScheduleInput: Schedule:Day:Interval=\"SCHEDULE DAY 64\", Blank Schedule Type Limits Name input -- will not be validated.\n   ** Warning ** ProcessScheduleInput: Schedule:Day:Interval=\"SCHEDULE DAY 65\", Blank Schedule Type Limits Name input -- will not be validated.\n   ** Warning ** ProcessScheduleInput: Schedule:Day:Interval=\"SCHEDULE DAY 66\", Blank Schedule Type Limits Name input -- will not be validated.\n   ** Warning ** ProcessScheduleInput: Schedule:Day:Interval=\"SCHEDULE DAY 67\", Blank Schedule Type Limits Name input -- will not be validated.\n   ** Warning ** ProcessScheduleInput: Schedule:Day:Interval=\"SCHEDULE DAY 68\", Blank Schedule Type Limits Name input -- will not be validated.\n   ** Warning ** ProcessScheduleInput: Schedule:Day:Interval=\"SCHEDULE DAY 69\", Blank Schedule Type Limits Name input -- will not be validated.\n   ** Warning ** ProcessScheduleInput: Schedule:Day:Interval=\"SCHEDULE DAY 70\", Blank Schedule Type Limits Name input -- will not be validated.\n   ** Warning ** ProcessScheduleInput: Schedule:Day:Interval=\"SCHEDULE DAY 71\", Blank Schedule Type Limits Name input -- will not be validated.\n   ** Warning ** ProcessScheduleInput: Schedule:Day:Interval=\"SCHEDULE DAY 72\", Blank Schedule Type Limits Name input -- will not be validated.\n   ** Warning ** ProcessScheduleInput: Schedule:Day:Interval=\"SCHEDULE DAY 73\", Blank Schedule Type Limits Name input -- will not be validated.\n   ** Warning ** ProcessScheduleInput: Schedule:Day:Interval=\"SCHEDULE DAY 74\", Blank Schedule Type Limits Name input -- will not be validated.\n   ** Warning ** ProcessScheduleInput: Schedule:Day:Interval=\"SCHEDULE DAY 75\", Blank Schedule Type Limits Name input -- will not be validated.\n   ** Warning ** ProcessScheduleInput: Schedule:Day:Interval=\"SCHEDULE DAY 76\", Blank Schedule Type Limits Name input -- will not be validated.\n   ** Warning ** ProcessScheduleInput: Schedule:Day:Interval=\"SCHEDULE DAY 77\", Blank Schedule Type Limits Name input -- will not be validated.\n   ** Warning ** ProcessScheduleInput: Schedule:Day:Interval=\"SCHEDULE DAY 78\", Blank Schedule Type Limits Name input -- will not be validated.\n   ** Warning ** ProcessScheduleInput: Schedule:Day:Interval=\"SCHEDULE DAY 79\", Blank Schedule Type Limits Name input -- will not be validated.\n   ** Warning ** ProcessScheduleInput: Schedule:Day:Interval=\"SCHEDULE DAY 8\", Blank Schedule Type Limits Name input -- will not be validated.\n   ** Warning ** ProcessScheduleInput: Schedule:Day:Interval=\"SCHEDULE DAY 80\", Blank Schedule Type Limits Name input -- will not be validated.\n   ** Warning ** ProcessScheduleInput: Schedule:Day:Interval=\"SCHEDULE DAY 81\", Blank Schedule Type Limits Name input -- will not be validated.\n   ** Warning ** ProcessScheduleInput: Schedule:Day:Interval=\"SCHEDULE DAY 82\", Blank Schedule Type Limits Name input -- will not be validated.\n   ** Warning ** ProcessScheduleInput: Schedule:Day:Interval=\"SCHEDULE DAY 83\", Blank Schedule Type Limits Name input -- will not be validated.\n   ** Warning ** ProcessScheduleInput: Schedule:Day:Interval=\"SCHEDULE DAY 84\", Blank Schedule Type Limits Name input -- will not be validated.\n   ** Warning ** ProcessScheduleInput: Schedule:Day:Interval=\"SCHEDULE DAY 85\", Blank Schedule Type Limits Name input -- will not be validated.\n   ** Warning ** ProcessScheduleInput: Schedule:Day:Interval=\"SCHEDULE DAY 86\", Blank Schedule Type Limits Name input -- will not be validated.\n   ** Warning ** ProcessScheduleInput: Schedule:Day:Interval=\"SCHEDULE DAY 87\", Blank Schedule Type Limits Name input -- will not be validated.\n   ** Warning ** ProcessScheduleInput: Schedule:Day:Interval=\"SCHEDULE DAY 88\", Blank Schedule Type Limits Name input -- will not be validated.\n   ** Warning ** ProcessScheduleInput: Schedule:Day:Interval=\"SCHEDULE DAY 89\", Blank Schedule Type Limits Name input -- will not be validated.\n   ** Warning ** ProcessScheduleInput: Schedule:Day:Interval=\"SCHEDULE DAY 9\", Blank Schedule Type Limits Name input -- will not be validated.\n   ** Warning ** ProcessScheduleInput: Schedule:Day:Interval=\"SCHEDULE DAY 90\", Blank Schedule Type Limits Name input -- will not be validated.\n   ** Warning ** ProcessScheduleInput: Schedule:Day:Interval=\"SCHEDULE DAY 91\", Blank Schedule Type Limits Name input -- will not be validated.\n   ** Warning ** ProcessScheduleInput: Schedule:Day:Interval=\"SCHEDULE DAY 92\", Blank Schedule Type Limits Name input -- will not be validated.\n   ** Warning ** ProcessScheduleInput: Schedule:Day:Interval=\"SCHEDULE DAY 93\", Blank Schedule Type Limits Name input -- will not be validated.\n   ** Warning ** ProcessScheduleInput: Schedule:Day:Interval=\"SCHEDULE DAY 94\", Blank Schedule Type Limits Name input -- will not be validated.\n   ** Warning ** ProcessScheduleInput: Schedule:Day:Interval=\"SCHEDULE DAY 95\", Blank Schedule Type Limits Name input -- will not be validated.\n   ** Warning ** ProcessScheduleInput: Schedule:Day:Interval=\"SCHEDULE DAY 96\", Blank Schedule Type Limits Name input -- will not be validated.\n   ** Warning ** ProcessScheduleInput: Schedule:Day:Interval=\"SCHEDULE DAY 97\", Blank Schedule Type Limits Name input -- will not be validated.\n   ** Warning ** ProcessScheduleInput: Schedule:Day:Interval=\"SCHEDULE DAY 98\", Blank Schedule Type Limits Name input -- will not be validated.\n   ** Warning ** ProcessScheduleInput: Schedule:Day:Interval=\"SCHEDULE DAY 99\", Blank Schedule Type Limits Name input -- will not be validated.\n   ** Warning ** ProcessScheduleInput: Schedule:Year=\"ECONOMIZER MAX OA FRACTION 100 PCT\", Blank Schedule Type Limits Name input -- will not be validated.\n   ** Warning ** ProcessScheduleInput: Schedule:Year=\"SCHEDULE RULESET 10\", Blank Schedule Type Limits Name input -- will not be validated.\n   ** Warning ** ProcessScheduleInput: Schedule:Year=\"SCHEDULE RULESET 100\", Blank Schedule Type Limits Name input -- will not be validated.\n   ** Warning ** ProcessScheduleInput: Schedule:Year=\"SCHEDULE RULESET 101\", Blank Schedule Type Limits Name input -- will not be validated.\n   ** Warning ** ProcessScheduleInput: Schedule:Year=\"SCHEDULE RULESET 102\", Blank Schedule Type Limits Name input -- will not be validated.\n   ** Warning ** ProcessScheduleInput: Schedule:Year=\"SCHEDULE RULESET 103\", Blank Schedule Type Limits Name input -- will not be validated.\n   ** Warning ** ProcessScheduleInput: Schedule:Year=\"SCHEDULE RULESET 104\", Blank Schedule Type Limits Name input -- will not be validated.\n   ** Warning ** ProcessScheduleInput: Schedule:Year=\"SCHEDULE RULESET 105\", Blank Schedule Type Limits Name input -- will not be validated.\n   ** Warning ** ProcessScheduleInput: Schedule:Year=\"SCHEDULE RULESET 106\", Blank Schedule Type Limits Name input -- will not be validated.\n   ** Warning ** ProcessScheduleInput: Schedule:Year=\"SCHEDULE RULESET 107\", Blank Schedule Type Limits Name input -- will not be validated.\n   ** Warning ** ProcessScheduleInput: Schedule:Year=\"SCHEDULE RULESET 108\", Blank Schedule Type Limits Name input -- will not be validated.\n   ** Warning ** ProcessScheduleInput: Schedule:Year=\"SCHEDULE RULESET 109\", Blank Schedule Type Limits Name input -- will not be validated.\n   ** Warning ** ProcessScheduleInput: Schedule:Year=\"SCHEDULE RULESET 11\", Blank Schedule Type Limits Name input -- will not be validated.\n   ** Warning ** ProcessScheduleInput: Schedule:Year=\"SCHEDULE RULESET 110\", Blank Schedule Type Limits Name input -- will not be validated.\n   ** Warning ** ProcessScheduleInput: Schedule:Year=\"SCHEDULE RULESET 111\", Blank Schedule Type Limits Name input -- will not be validated.\n   ** Warning ** ProcessScheduleInput: Schedule:Year=\"SCHEDULE RULESET 112\", Blank Schedule Type Limits Name input -- will not be validated.\n   ** Warning ** ProcessScheduleInput: Schedule:Year=\"SCHEDULE RULESET 113\", Blank Schedule Type Limits Name input -- will not be validated.\n   ** Warning ** ProcessScheduleInput: Schedule:Year=\"SCHEDULE RULESET 114\", Blank Schedule Type Limits Name input -- will not be validated.\n   ** Warning ** ProcessScheduleInput: Schedule:Year=\"SCHEDULE RULESET 115\", Blank Schedule Type Limits Name input -- will not be validated.\n   ** Warning ** ProcessScheduleInput: Schedule:Year=\"SCHEDULE RULESET 116\", Blank Schedule Type Limits Name input -- will not be validated.\n   ** Warning ** ProcessScheduleInput: Schedule:Year=\"SCHEDULE RULESET 117\", Blank Schedule Type Limits Name input -- will not be validated.\n   ** Warning ** ProcessScheduleInput: Schedule:Year=\"SCHEDULE RULESET 118\", Blank Schedule Type Limits Name input -- will not be validated.\n   ** Warning ** ProcessScheduleInput: Schedule:Year=\"SCHEDULE RULESET 119\", Blank Schedule Type Limits Name input -- will not be validated.\n   ** Warning ** ProcessScheduleInput: Schedule:Year=\"SCHEDULE RULESET 12\", Blank Schedule Type Limits Name input -- will not be validated.\n   ** Warning ** ProcessScheduleInput: Schedule:Year=\"SCHEDULE RULESET 120\", Blank Schedule Type Limits Name input -- will not be validated.\n   ** Warning ** ProcessScheduleInput: Schedule:Year=\"SCHEDULE RULESET 121\", Blank Schedule Type Limits Name input -- will not be validated.\n   ** Warning ** ProcessScheduleInput: Schedule:Year=\"SCHEDULE RULESET 122\", Blank Schedule Type Limits Name input -- will not be validated.\n   ** Warning ** ProcessScheduleInput: Schedule:Year=\"SCHEDULE RULESET 123\", Blank Schedule Type Limits Name input -- will not be validated.\n   ** Warning ** ProcessScheduleInput: Schedule:Year=\"SCHEDULE RULESET 124\", Blank Schedule Type Limits Name input -- will not be validated.\n   ** Warning ** ProcessScheduleInput: Schedule:Year=\"SCHEDULE RULESET 125\", Blank Schedule Type Limits Name input -- will not be validated.\n   ** Warning ** ProcessScheduleInput: Schedule:Year=\"SCHEDULE RULESET 126\", Blank Schedule Type Limits Name input -- will not be validated.\n   ** Warning ** ProcessScheduleInput: Schedule:Year=\"SCHEDULE RULESET 127\", Blank Schedule Type Limits Name input -- will not be validated.\n   ** Warning ** ProcessScheduleInput: Schedule:Year=\"SCHEDULE RULESET 128\", Blank Schedule Type Limits Name input -- will not be validated.\n   ** Warning ** ProcessScheduleInput: Schedule:Year=\"SCHEDULE RULESET 129\", Blank Schedule Type Limits Name input -- will not be validated.\n   ** Warning ** ProcessScheduleInput: Schedule:Year=\"SCHEDULE RULESET 13\", Blank Schedule Type Limits Name input -- will not be validated.\n   ** Warning ** ProcessScheduleInput: Schedule:Year=\"SCHEDULE RULESET 130\", Blank Schedule Type Limits Name input -- will not be validated.\n   ** Warning ** ProcessScheduleInput: Schedule:Year=\"SCHEDULE RULESET 131\", Blank Schedule Type Limits Name input -- will not be validated.\n   ** Warning ** ProcessScheduleInput: Schedule:Year=\"SCHEDULE RULESET 132\", Blank Schedule Type Limits Name input -- will not be validated.\n   ** Warning ** ProcessScheduleInput: Schedule:Year=\"SCHEDULE RULESET 133\", Blank Schedule Type Limits Name input -- will not be validated.\n   ** Warning ** ProcessScheduleInput: Schedule:Year=\"SCHEDULE RULESET 134\", Blank Schedule Type Limits Name input -- will not be validated.\n   ** Warning ** ProcessScheduleInput: Schedule:Year=\"SCHEDULE RULESET 135\", Blank Schedule Type Limits Name input -- will not be validated.\n   ** Warning ** ProcessScheduleInput: Schedule:Year=\"SCHEDULE RULESET 136\", Blank Schedule Type Limits Name input -- will not be validated.\n   ** Warning ** ProcessScheduleInput: Schedule:Year=\"SCHEDULE RULESET 137\", Blank Schedule Type Limits Name input -- will not be validated.\n   ** Warning ** ProcessScheduleInput: Schedule:Year=\"SCHEDULE RULESET 138\", Blank Schedule Type Limits Name input -- will not be validated.\n   ** Warning ** ProcessScheduleInput: Schedule:Year=\"SCHEDULE RULESET 139\", Blank Schedule Type Limits Name input -- will not be validated.\n   ** Warning ** ProcessScheduleInput: Schedule:Year=\"SCHEDULE RULESET 14\", Blank Schedule Type Limits Name input -- will not be validated.\n   ** Warning ** ProcessScheduleInput: Schedule:Year=\"SCHEDULE RULESET 140\", Blank Schedule Type Limits Name input -- will not be validated.\n   ** Warning ** ProcessScheduleInput: Schedule:Year=\"SCHEDULE RULESET 141\", Blank Schedule Type Limits Name input -- will not be validated.\n   ** Warning ** ProcessScheduleInput: Schedule:Year=\"SCHEDULE RULESET 142\", Blank Schedule Type Limits Name input -- will not be validated.\n   ** Warning ** ProcessScheduleInput: Schedule:Year=\"SCHEDULE RULESET 143\", Blank Schedule Type Limits Name input -- will not be validated.\n   ** Warning ** ProcessScheduleInput: Schedule:Year=\"SCHEDULE RULESET 144\", Blank Schedule Type Limits Name input -- will not be validated.\n   ** Warning ** ProcessScheduleInput: Schedule:Year=\"SCHEDULE RULESET 145\", Blank Schedule Type Limits Name input -- will not be validated.\n   ** Warning ** ProcessScheduleInput: Schedule:Year=\"SCHEDULE RULESET 146\", Blank Schedule Type Limits Name input -- will not be validated.\n   ** Warning ** ProcessScheduleInput: Schedule:Year=\"SCHEDULE RULESET 147\", Blank Schedule Type Limits Name input -- will not be validated.\n   ** Warning ** ProcessScheduleInput: Schedule:Year=\"SCHEDULE RULESET 148\", Blank Schedule Type Limits Name input -- will not be validated.\n   ** Warning ** ProcessScheduleInput: Schedule:Year=\"SCHEDULE RULESET 149\", Blank Schedule Type Limits Name input -- will not be validated.\n   ** Warning ** ProcessScheduleInput: Schedule:Year=\"SCHEDULE RULESET 15\", Blank Schedule Type Limits Name input -- will not be validated.\n   ** Warning ** ProcessScheduleInput: Schedule:Year=\"SCHEDULE RULESET 150\", Blank Schedule Type Limits Name input -- will not be validated.\n   ** Warning ** ProcessScheduleInput: Schedule:Year=\"SCHEDULE RULESET 151\", Blank Schedule Type Limits Name input -- will not be validated.\n   ** Warning ** ProcessScheduleInput: Schedule:Year=\"SCHEDULE RULESET 152\", Blank Schedule Type Limits Name input -- will not be validated.\n   ** Warning ** ProcessScheduleInput: Schedule:Year=\"SCHEDULE RULESET 153\", Blank Schedule Type Limits Name input -- will not be validated.\n   ** Warning ** ProcessScheduleInput: Schedule:Year=\"SCHEDULE RULESET 154\", Blank Schedule Type Limits Name input -- will not be validated.\n   ** Warning ** ProcessScheduleInput: Schedule:Year=\"SCHEDULE RULESET 155\", Blank Schedule Type Limits Name input -- will not be validated.\n   ** Warning ** ProcessScheduleInput: Schedule:Year=\"SCHEDULE RULESET 156\", Blank Schedule Type Limits Name input -- will not be validated.\n   ** Warning ** ProcessScheduleInput: Schedule:Year=\"SCHEDULE RULESET 157\", Blank Schedule Type Limits Name input -- will not be validated.\n   ** Warning ** ProcessScheduleInput: Schedule:Year=\"SCHEDULE RULESET 158\", Blank Schedule Type Limits Name input -- will not be validated.\n   ** Warning ** ProcessScheduleInput: Schedule:Year=\"SCHEDULE RULESET 159\", Blank Schedule Type Limits Name input -- will not be validated.\n   ** Warning ** ProcessScheduleInput: Schedule:Year=\"SCHEDULE RULESET 16\", Blank Schedule Type Limits Name input -- will not be validated.\n   ** Warning ** ProcessScheduleInput: Schedule:Year=\"SCHEDULE RULESET 160\", Blank Schedule Type Limits Name input -- will not be validated.\n   ** Warning ** ProcessScheduleInput: Schedule:Year=\"SCHEDULE RULESET 161\", Blank Schedule Type Limits Name input -- will not be validated.\n   ** Warning ** ProcessScheduleInput: Schedule:Year=\"SCHEDULE RULESET 162\", Blank Schedule Type Limits Name input -- will not be validated.\n   ** Warning ** ProcessScheduleInput: Schedule:Year=\"SCHEDULE RULESET 163\", Blank Schedule Type Limits Name input -- will not be validated.\n   ** Warning ** ProcessScheduleInput: Schedule:Year=\"SCHEDULE RULESET 164\", Blank Schedule Type Limits Name input -- will not be validated.\n   ** Warning ** ProcessScheduleInput: Schedule:Year=\"SCHEDULE RULESET 165\", Blank Schedule Type Limits Name input -- will not be validated.\n   ** Warning ** ProcessScheduleInput: Schedule:Year=\"SCHEDULE RULESET 166\", Blank Schedule Type Limits Name input -- will not be validated.\n   ** Warning ** ProcessScheduleInput: Schedule:Year=\"SCHEDULE RULESET 167\", Blank Schedule Type Limits Name input -- will not be validated.\n   ** Warning ** ProcessScheduleInput: Schedule:Year=\"SCHEDULE RULESET 168\", Blank Schedule Type Limits Name input -- will not be validated.\n   ** Warning ** ProcessScheduleInput: Schedule:Year=\"SCHEDULE RULESET 169\", Blank Schedule Type Limits Name input -- will not be validated.\n   ** Warning ** ProcessScheduleInput: Schedule:Year=\"SCHEDULE RULESET 17\", Blank Schedule Type Limits Name input -- will not be validated.\n   ** Warning ** ProcessScheduleInput: Schedule:Year=\"SCHEDULE RULESET 170\", Blank Schedule Type Limits Name input -- will not be validated.\n   ** Warning ** ProcessScheduleInput: Schedule:Year=\"SCHEDULE RULESET 171\", Blank Schedule Type Limits Name input -- will not be validated.\n   ** Warning ** ProcessScheduleInput: Schedule:Year=\"SCHEDULE RULESET 172\", Blank Schedule Type Limits Name input -- will not be validated.\n   ** Warning ** ProcessScheduleInput: Schedule:Year=\"SCHEDULE RULESET 173\", Blank Schedule Type Limits Name input -- will not be validated.\n   ** Warning ** ProcessScheduleInput: Schedule:Year=\"SCHEDULE RULESET 174\", Blank Schedule Type Limits Name input -- will not be validated.\n   ** Warning ** ProcessScheduleInput: Schedule:Year=\"SCHEDULE RULESET 175\", Blank Schedule Type Limits Name input -- will not be validated.\n   ** Warning ** ProcessScheduleInput: Schedule:Year=\"SCHEDULE RULESET 176\", Blank Schedule Type Limits Name input -- will not be validated.\n   ** Warning ** ProcessScheduleInput: Schedule:Year=\"SCHEDULE RULESET 177\", Blank Schedule Type Limits Name input -- will not be validated.\n   ** Warning ** ProcessScheduleInput: Schedule:Year=\"SCHEDULE RULESET 178\", Blank Schedule Type Limits Name input -- will not be validated.\n   ** Warning ** ProcessScheduleInput: Schedule:Year=\"SCHEDULE RULESET 179\", Blank Schedule Type Limits Name input -- will not be validated.\n   ** Warning ** ProcessScheduleInput: Schedule:Year=\"SCHEDULE RULESET 18\", Blank Schedule Type Limits Name input -- will not be validated.\n   ** Warning ** ProcessScheduleInput: Schedule:Year=\"SCHEDULE RULESET 180\", Blank Schedule Type Limits Name input -- will not be validated.\n   ** Warning ** ProcessScheduleInput: Schedule:Year=\"SCHEDULE RULESET 181\", Blank Schedule Type Limits Name input -- will not be validated.\n   ** Warning ** ProcessScheduleInput: Schedule:Year=\"SCHEDULE RULESET 182\", Blank Schedule Type Limits Name input -- will not be validated.\n   ** Warning ** ProcessScheduleInput: Schedule:Year=\"SCHEDULE RULESET 183\", Blank Schedule Type Limits Name input -- will not be validated.\n   ** Warning ** ProcessScheduleInput: Schedule:Year=\"SCHEDULE RULESET 184\", Blank Schedule Type Limits Name input -- will not be validated.\n   ** Warning ** ProcessScheduleInput: Schedule:Year=\"SCHEDULE RULESET 185\", Blank Schedule Type Limits Name input -- will not be validated.\n   ** Warning ** ProcessScheduleInput: Schedule:Year=\"SCHEDULE RULESET 186\", Blank Schedule Type Limits Name input -- will not be validated.\n   ** Warning ** ProcessScheduleInput: Schedule:Year=\"SCHEDULE RULESET 187\", Blank Schedule Type Limits Name input -- will not be validated.\n   ** Warning ** ProcessScheduleInput: Schedule:Year=\"SCHEDULE RULESET 188\", Blank Schedule Type Limits Name input -- will not be validated.\n   ** Warning ** ProcessScheduleInput: Schedule:Year=\"SCHEDULE RULESET 189\", Blank Schedule Type Limits Name input -- will not be validated.\n   ** Warning ** ProcessScheduleInput: Schedule:Year=\"SCHEDULE RULESET 19\", Blank Schedule Type Limits Name input -- will not be validated.\n   ** Warning ** ProcessScheduleInput: Schedule:Year=\"SCHEDULE RULESET 190\", Blank Schedule Type Limits Name input -- will not be validated.\n   ** Warning ** ProcessScheduleInput: Schedule:Year=\"SCHEDULE RULESET 191\", Blank Schedule Type Limits Name input -- will not be validated.\n   ** Warning ** ProcessScheduleInput: Schedule:Year=\"SCHEDULE RULESET 192\", Blank Schedule Type Limits Name input -- will not be validated.\n   ** Warning ** ProcessScheduleInput: Schedule:Year=\"SCHEDULE RULESET 193\", Blank Schedule Type Limits Name input -- will not be validated.\n   ** Warning ** ProcessScheduleInput: Schedule:Year=\"SCHEDULE RULESET 194\", Blank Schedule Type Limits Name input -- will not be validated.\n   ** Warning ** ProcessScheduleInput: Schedule:Year=\"SCHEDULE RULESET 195\", Blank Schedule Type Limits Name input -- will not be validated.\n   ** Warning ** ProcessScheduleInput: Schedule:Year=\"SCHEDULE RULESET 196\", Blank Schedule Type Limits Name input -- will not be validated.\n   ** Warning ** ProcessScheduleInput: Schedule:Year=\"SCHEDULE RULESET 197\", Blank Schedule Type Limits Name input -- will not be validated.\n   ** Warning ** ProcessScheduleInput: Schedule:Year=\"SCHEDULE RULESET 198\", Blank Schedule Type Limits Name input -- will not be validated.\n   ** Warning ** ProcessScheduleInput: Schedule:Year=\"SCHEDULE RULESET 199\", Blank Schedule Type Limits Name input -- will not be validated.\n   ** Warning ** ProcessScheduleInput: Schedule:Year=\"SCHEDULE RULESET 20\", Blank Schedule Type Limits Name input -- will not be validated.\n   ** Warning ** ProcessScheduleInput: Schedule:Year=\"SCHEDULE RULESET 200\", Blank Schedule Type Limits Name input -- will not be validated.\n   ** Warning ** ProcessScheduleInput: Schedule:Year=\"SCHEDULE RULESET 201\", Blank Schedule Type Limits Name input -- will not be validated.\n   ** Warning ** ProcessScheduleInput: Schedule:Year=\"SCHEDULE RULESET 202\", Blank Schedule Type Limits Name input -- will not be validated.\n   ** Warning ** ProcessScheduleInput: Schedule:Year=\"SCHEDULE RULESET 203\", Blank Schedule Type Limits Name input -- will not be validated.\n   ** Warning ** ProcessScheduleInput: Schedule:Year=\"SCHEDULE RULESET 204\", Blank Schedule Type Limits Name input -- will not be validated.\n   ** Warning ** ProcessScheduleInput: Schedule:Year=\"SCHEDULE RULESET 205\", Blank Schedule Type Limits Name input -- will not be validated.\n   ** Warning ** ProcessScheduleInput: Schedule:Year=\"SCHEDULE RULESET 206\", Blank Schedule Type Limits Name input -- will not be validated.\n   ** Warning ** ProcessScheduleInput: Schedule:Year=\"SCHEDULE RULESET 207\", Blank Schedule Type Limits Name input -- will not be validated.\n   ** Warning ** ProcessScheduleInput: Schedule:Year=\"SCHEDULE RULESET 208\", Blank Schedule Type Limits Name input -- will not be validated.\n   ** Warning ** ProcessScheduleInput: Schedule:Year=\"SCHEDULE RULESET 209\", Blank Schedule Type Limits Name input -- will not be validated.\n   ** Warning ** ProcessScheduleInput: Schedule:Year=\"SCHEDULE RULESET 21\", Blank Schedule Type Limits Name input -- will not be validated.\n   ** Warning ** ProcessScheduleInput: Schedule:Year=\"SCHEDULE RULESET 210\", Blank Schedule Type Limits Name input -- will not be validated.\n   ** Warning ** ProcessScheduleInput: Schedule:Year=\"SCHEDULE RULESET 211\", Blank Schedule Type Limits Name input -- will not be validated.\n   ** Warning ** ProcessScheduleInput: Schedule:Year=\"SCHEDULE RULESET 212\", Blank Schedule Type Limits Name input -- will not be validated.\n   ** Warning ** ProcessScheduleInput: Schedule:Year=\"SCHEDULE RULESET 213\", Blank Schedule Type Limits Name input -- will not be validated.\n   ** Warning ** ProcessScheduleInput: Schedule:Year=\"SCHEDULE RULESET 214\", Blank Schedule Type Limits Name input -- will not be validated.\n   ** Warning ** ProcessScheduleInput: Schedule:Year=\"SCHEDULE RULESET 215\", Blank Schedule Type Limits Name input -- will not be validated.\n   ** Warning ** ProcessScheduleInput: Schedule:Year=\"SCHEDULE RULESET 216\", Blank Schedule Type Limits Name input -- will not be validated.\n   ** Warning ** ProcessScheduleInput: Schedule:Year=\"SCHEDULE RULESET 217\", Blank Schedule Type Limits Name input -- will not be validated.\n   ** Warning ** ProcessScheduleInput: Schedule:Year=\"SCHEDULE RULESET 218\", Blank Schedule Type Limits Name input -- will not be validated.\n   ** Warning ** ProcessScheduleInput: Schedule:Year=\"SCHEDULE RULESET 219\", Blank Schedule Type Limits Name input -- will not be validated.\n   ** Warning ** ProcessScheduleInput: Schedule:Year=\"SCHEDULE RULESET 22\", Blank Schedule Type Limits Name input -- will not be validated.\n   ** Warning ** ProcessScheduleInput: Schedule:Year=\"SCHEDULE RULESET 220\", Blank Schedule Type Limits Name input -- will not be validated.\n   ** Warning ** ProcessScheduleInput: Schedule:Year=\"SCHEDULE RULESET 221\", Blank Schedule Type Limits Name input -- will not be validated.\n   ** Warning ** ProcessScheduleInput: Schedule:Year=\"SCHEDULE RULESET 222\", Blank Schedule Type Limits Name input -- will not be validated.\n   ** Warning ** ProcessScheduleInput: Schedule:Year=\"SCHEDULE RULESET 223\", Blank Schedule Type Limits Name input -- will not be validated.\n   ** Warning ** ProcessScheduleInput: Schedule:Year=\"SCHEDULE RULESET 224\", Blank Schedule Type Limits Name input -- will not be validated.\n   ** Warning ** ProcessScheduleInput: Schedule:Year=\"SCHEDULE RULESET 225\", Blank Schedule Type Limits Name input -- will not be validated.\n   ** Warning ** ProcessScheduleInput: Schedule:Year=\"SCHEDULE RULESET 226\", Blank Schedule Type Limits Name input -- will not be validated.\n   ** Warning ** ProcessScheduleInput: Schedule:Year=\"SCHEDULE RULESET 227\", Blank Schedule Type Limits Name input -- will not be validated.\n   ** Warning ** ProcessScheduleInput: Schedule:Year=\"SCHEDULE RULESET 228\", Blank Schedule Type Limits Name input -- will not be validated.\n   ** Warning ** ProcessScheduleInput: Schedule:Year=\"SCHEDULE RULESET 229\", Blank Schedule Type Limits Name input -- will not be validated.\n   ** Warning ** ProcessScheduleInput: Schedule:Year=\"SCHEDULE RULESET 23\", Blank Schedule Type Limits Name input -- will not be validated.\n   ** Warning ** ProcessScheduleInput: Schedule:Year=\"SCHEDULE RULESET 230\", Blank Schedule Type Limits Name input -- will not be validated.\n   ** Warning ** ProcessScheduleInput: Schedule:Year=\"SCHEDULE RULESET 231\", Blank Schedule Type Limits Name input -- will not be validated.\n   ** Warning ** ProcessScheduleInput: Schedule:Year=\"SCHEDULE RULESET 232\", Blank Schedule Type Limits Name input -- will not be validated.\n   ** Warning ** ProcessScheduleInput: Schedule:Year=\"SCHEDULE RULESET 233\", Blank Schedule Type Limits Name input -- will not be validated.\n   ** Warning ** ProcessScheduleInput: Schedule:Year=\"SCHEDULE RULESET 234\", Blank Schedule Type Limits Name input -- will not be validated.\n   ** Warning ** ProcessScheduleInput: Schedule:Year=\"SCHEDULE RULESET 235\", Blank Schedule Type Limits Name input -- will not be validated.\n   ** Warning ** ProcessScheduleInput: Schedule:Year=\"SCHEDULE RULESET 236\", Blank Schedule Type Limits Name input -- will not be validated.\n   ** Warning ** ProcessScheduleInput: Schedule:Year=\"SCHEDULE RULESET 237\", Blank Schedule Type Limits Name input -- will not be validated.\n   ** Warning ** ProcessScheduleInput: Schedule:Year=\"SCHEDULE RULESET 238\", Blank Schedule Type Limits Name input -- will not be validated.\n   ** Warning ** ProcessScheduleInput: Schedule:Year=\"SCHEDULE RULESET 239\", Blank Schedule Type Limits Name input -- will not be validated.\n   ** Warning ** ProcessScheduleInput: Schedule:Year=\"SCHEDULE RULESET 24\", Blank Schedule Type Limits Name input -- will not be validated.\n   ** Warning ** ProcessScheduleInput: Schedule:Year=\"SCHEDULE RULESET 240\", Blank Schedule Type Limits Name input -- will not be validated.\n   ** Warning ** ProcessScheduleInput: Schedule:Year=\"SCHEDULE RULESET 241\", Blank Schedule Type Limits Name input -- will not be validated.\n   ** Warning ** ProcessScheduleInput: Schedule:Year=\"SCHEDULE RULESET 242\", Blank Schedule Type Limits Name input -- will not be validated.\n   ** Warning ** ProcessScheduleInput: Schedule:Year=\"SCHEDULE RULESET 25\", Blank Schedule Type Limits Name input -- will not be validated.\n   ** Warning ** ProcessScheduleInput: Schedule:Year=\"SCHEDULE RULESET 26\", Blank Schedule Type Limits Name input -- will not be validated.\n   ** Warning ** ProcessScheduleInput: Schedule:Year=\"SCHEDULE RULESET 27\", Blank Schedule Type Limits Name input -- will not be validated.\n   ** Warning ** ProcessScheduleInput: Schedule:Year=\"SCHEDULE RULESET 28\", Blank Schedule Type Limits Name input -- will not be validated.\n   ** Warning ** ProcessScheduleInput: Schedule:Year=\"SCHEDULE RULESET 29\", Blank Schedule Type Limits Name input -- will not be validated.\n   ** Warning ** ProcessScheduleInput: Schedule:Year=\"SCHEDULE RULESET 3\", Blank Schedule Type Limits Name input -- will not be validated.\n   ** Warning ** ProcessScheduleInput: Schedule:Year=\"SCHEDULE RULESET 30\", Blank Schedule Type Limits Name input -- will not be validated.\n   ** Warning ** ProcessScheduleInput: Schedule:Year=\"SCHEDULE RULESET 31\", Blank Schedule Type Limits Name input -- will not be validated.\n   ** Warning ** ProcessScheduleInput: Schedule:Year=\"SCHEDULE RULESET 32\", Blank Schedule Type Limits Name input -- will not be validated.\n   ** Warning ** ProcessScheduleInput: Schedule:Year=\"SCHEDULE RULESET 33\", Blank Schedule Type Limits Name input -- will not be validated.\n   ** Warning ** ProcessScheduleInput: Schedule:Year=\"SCHEDULE RULESET 34\", Blank Schedule Type Limits Name input -- will not be validated.\n   ** Warning ** ProcessScheduleInput: Schedule:Year=\"SCHEDULE RULESET 35\", Blank Schedule Type Limits Name input -- will not be validated.\n   ** Warning ** ProcessScheduleInput: Schedule:Year=\"SCHEDULE RULESET 36\", Blank Schedule Type Limits Name input -- will not be validated.\n   ** Warning ** ProcessScheduleInput: Schedule:Year=\"SCHEDULE RULESET 37\", Blank Schedule Type Limits Name input -- will not be validated.\n   ** Warning ** ProcessScheduleInput: Schedule:Year=\"SCHEDULE RULESET 38\", Blank Schedule Type Limits Name input -- will not be validated.\n   ** Warning ** ProcessScheduleInput: Schedule:Year=\"SCHEDULE RULESET 39\", Blank Schedule Type Limits Name input -- will not be validated.\n   ** Warning ** ProcessScheduleInput: Schedule:Year=\"SCHEDULE RULESET 4\", Blank Schedule Type Limits Name input -- will not be validated.\n   ** Warning ** ProcessScheduleInput: Schedule:Year=\"SCHEDULE RULESET 40\", Blank Schedule Type Limits Name input -- will not be validated.\n   ** Warning ** ProcessScheduleInput: Schedule:Year=\"SCHEDULE RULESET 41\", Blank Schedule Type Limits Name input -- will not be validated.\n   ** Warning ** ProcessScheduleInput: Schedule:Year=\"SCHEDULE RULESET 42\", Blank Schedule Type Limits Name input -- will not be validated.\n   ** Warning ** ProcessScheduleInput: Schedule:Year=\"SCHEDULE RULESET 43\", Blank Schedule Type Limits Name input -- will not be validated.\n   ** Warning ** ProcessScheduleInput: Schedule:Year=\"SCHEDULE RULESET 44\", Blank Schedule Type Limits Name input -- will not be validated.\n   ** Warning ** ProcessScheduleInput: Schedule:Year=\"SCHEDULE RULESET 45\", Blank Schedule Type Limits Name input -- will not be validated.\n   ** Warning ** ProcessScheduleInput: Schedule:Year=\"SCHEDULE RULESET 46\", Blank Schedule Type Limits Name input -- will not be validated.\n   ** Warning ** ProcessScheduleInput: Schedule:Year=\"SCHEDULE RULESET 47\", Blank Schedule Type Limits Name input -- will not be validated.\n   ** Warning ** ProcessScheduleInput: Schedule:Year=\"SCHEDULE RULESET 48\", Blank Schedule Type Limits Name input -- will not be validated.\n   ** Warning ** ProcessScheduleInput: Schedule:Year=\"SCHEDULE RULESET 49\", Blank Schedule Type Limits Name input -- will not be validated.\n   ** Warning ** ProcessScheduleInput: Schedule:Year=\"SCHEDULE RULESET 5\", Blank Schedule Type Limits Name input -- will not be validated.\n   ** Warning ** ProcessScheduleInput: Schedule:Year=\"SCHEDULE RULESET 50\", Blank Schedule Type Limits Name input -- will not be validated.\n   ** Warning ** ProcessScheduleInput: Schedule:Year=\"SCHEDULE RULESET 51\", Blank Schedule Type Limits Name input -- will not be validated.\n   ** Warning ** ProcessScheduleInput: Schedule:Year=\"SCHEDULE RULESET 52\", Blank Schedule Type Limits Name input -- will not be validated.\n   ** Warning ** ProcessScheduleInput: Schedule:Year=\"SCHEDULE RULESET 53\", Blank Schedule Type Limits Name input -- will not be validated.\n   ** Warning ** ProcessScheduleInput: Schedule:Year=\"SCHEDULE RULESET 54\", Blank Schedule Type Limits Name input -- will not be validated.\n   ** Warning ** ProcessScheduleInput: Schedule:Year=\"SCHEDULE RULESET 55\", Blank Schedule Type Limits Name input -- will not be validated.\n   ** Warning ** ProcessScheduleInput: Schedule:Year=\"SCHEDULE RULESET 56\", Blank Schedule Type Limits Name input -- will not be validated.\n   ** Warning ** ProcessScheduleInput: Schedule:Year=\"SCHEDULE RULESET 57\", Blank Schedule Type Limits Name input -- will not be validated.\n   ** Warning ** ProcessScheduleInput: Schedule:Year=\"SCHEDULE RULESET 58\", Blank Schedule Type Limits Name input -- will not be validated.\n   ** Warning ** ProcessScheduleInput: Schedule:Year=\"SCHEDULE RULESET 59\", Blank Schedule Type Limits Name input -- will not be validated.\n   ** Warning ** ProcessScheduleInput: Schedule:Year=\"SCHEDULE RULESET 6\", Blank Schedule Type Limits Name input -- will not be validated.\n   ** Warning ** ProcessScheduleInput: Schedule:Year=\"SCHEDULE RULESET 60\", Blank Schedule Type Limits Name input -- will not be validated.\n   ** Warning ** ProcessScheduleInput: Schedule:Year=\"SCHEDULE RULESET 61\", Blank Schedule Type Limits Name input -- will not be validated.\n   ** Warning ** ProcessScheduleInput: Schedule:Year=\"SCHEDULE RULESET 62\", Blank Schedule Type Limits Name input -- will not be validated.\n   ** Warning ** ProcessScheduleInput: Schedule:Year=\"SCHEDULE RULESET 63\", Blank Schedule Type Limits Name input -- will not be validated.\n   ** Warning ** ProcessScheduleInput: Schedule:Year=\"SCHEDULE RULESET 64\", Blank Schedule Type Limits Name input -- will not be validated.\n   ** Warning ** ProcessScheduleInput: Schedule:Year=\"SCHEDULE RULESET 65\", Blank Schedule Type Limits Name input -- will not be validated.\n   ** Warning ** ProcessScheduleInput: Schedule:Year=\"SCHEDULE RULESET 66\", Blank Schedule Type Limits Name input -- will not be validated.\n   ** Warning ** ProcessScheduleInput: Schedule:Year=\"SCHEDULE RULESET 67\", Blank Schedule Type Limits Name input -- will not be validated.\n   ** Warning ** ProcessScheduleInput: Schedule:Year=\"SCHEDULE RULESET 68\", Blank Schedule Type Limits Name input -- will not be validated.\n   ** Warning ** ProcessScheduleInput: Schedule:Year=\"SCHEDULE RULESET 69\", Blank Schedule Type Limits Name input -- will not be validated.\n   ** Warning ** ProcessScheduleInput: Schedule:Year=\"SCHEDULE RULESET 7\", Blank Schedule Type Limits Name input -- will not be validated.\n   ** Warning ** ProcessScheduleInput: Schedule:Year=\"SCHEDULE RULESET 70\", Blank Schedule Type Limits Name input -- will not be validated.\n   ** Warning ** ProcessScheduleInput: Schedule:Year=\"SCHEDULE RULESET 71\", Blank Schedule Type Limits Name input -- will not be validated.\n   ** Warning ** ProcessScheduleInput: Schedule:Year=\"SCHEDULE RULESET 72\", Blank Schedule Type Limits Name input -- will not be validated.\n   ** Warning ** ProcessScheduleInput: Schedule:Year=\"SCHEDULE RULESET 73\", Blank Schedule Type Limits Name input -- will not be validated.\n   ** Warning ** ProcessScheduleInput: Schedule:Year=\"SCHEDULE RULESET 74\", Blank Schedule Type Limits Name input -- will not be validated.\n   ** Warning ** ProcessScheduleInput: Schedule:Year=\"SCHEDULE RULESET 75\", Blank Schedule Type Limits Name input -- will not be validated.\n   ** Warning ** ProcessScheduleInput: Schedule:Year=\"SCHEDULE RULESET 76\", Blank Schedule Type Limits Name input -- will not be validated.\n   ** Warning ** ProcessScheduleInput: Schedule:Year=\"SCHEDULE RULESET 77\", Blank Schedule Type Limits Name input -- will not be validated.\n   ** Warning ** ProcessScheduleInput: Schedule:Year=\"SCHEDULE RULESET 78\", Blank Schedule Type Limits Name input -- will not be validated.\n   ** Warning ** ProcessScheduleInput: Schedule:Year=\"SCHEDULE RULESET 79\", Blank Schedule Type Limits Name input -- will not be validated.\n   ** Warning ** ProcessScheduleInput: Schedule:Year=\"SCHEDULE RULESET 8\", Blank Schedule Type Limits Name input -- will not be validated.\n   ** Warning ** ProcessScheduleInput: Schedule:Year=\"SCHEDULE RULESET 80\", Blank Schedule Type Limits Name input -- will not be validated.\n   ** Warning ** ProcessScheduleInput: Schedule:Year=\"SCHEDULE RULESET 81\", Blank Schedule Type Limits Name input -- will not be validated.\n   ** Warning ** ProcessScheduleInput: Schedule:Year=\"SCHEDULE RULESET 82\", Blank Schedule Type Limits Name input -- will not be validated.\n   ** Warning ** ProcessScheduleInput: Schedule:Year=\"SCHEDULE RULESET 83\", Blank Schedule Type Limits Name input -- will not be validated.\n   ** Warning ** ProcessScheduleInput: Schedule:Year=\"SCHEDULE RULESET 84\", Blank Schedule Type Limits Name input -- will not be validated.\n   ** Warning ** ProcessScheduleInput: Schedule:Year=\"SCHEDULE RULESET 85\", Blank Schedule Type Limits Name input -- will not be validated.\n   ** Warning ** ProcessScheduleInput: Schedule:Year=\"SCHEDULE RULESET 86\", Blank Schedule Type Limits Name input -- will not be validated.\n   ** Warning ** ProcessScheduleInput: Schedule:Year=\"SCHEDULE RULESET 87\", Blank Schedule Type Limits Name input -- will not be validated.\n   ** Warning ** ProcessScheduleInput: Schedule:Year=\"SCHEDULE RULESET 88\", Blank Schedule Type Limits Name input -- will not be validated.\n   ** Warning ** ProcessScheduleInput: Schedule:Year=\"SCHEDULE RULESET 89\", Blank Schedule Type Limits Name input -- will not be validated.\n   ** Warning ** ProcessScheduleInput: Schedule:Year=\"SCHEDULE RULESET 9\", Blank Schedule Type Limits Name input -- will not be validated.\n   ** Warning ** ProcessScheduleInput: Schedule:Year=\"SCHEDULE RULESET 90\", Blank Schedule Type Limits Name input -- will not be validated.\n   ** Warning ** ProcessScheduleInput: Schedule:Year=\"SCHEDULE RULESET 91\", Blank Schedule Type Limits Name input -- will not be validated.\n   ** Warning ** ProcessScheduleInput: Schedule:Year=\"SCHEDULE RULESET 92\", Blank Schedule Type Limits Name input -- will not be validated.\n   ** Warning ** ProcessScheduleInput: Schedule:Year=\"SCHEDULE RULESET 93\", Blank Schedule Type Limits Name input -- will not be validated.\n   ** Warning ** ProcessScheduleInput: Schedule:Year=\"SCHEDULE RULESET 94\", Blank Schedule Type Limits Name input -- will not be validated.\n   ** Warning ** ProcessScheduleInput: Schedule:Year=\"SCHEDULE RULESET 95\", Blank Schedule Type Limits Name input -- will not be validated.\n   ** Warning ** ProcessScheduleInput: Schedule:Year=\"SCHEDULE RULESET 96\", Blank Schedule Type Limits Name input -- will not be validated.\n   ** Warning ** ProcessScheduleInput: Schedule:Year=\"SCHEDULE RULESET 97\", Blank Schedule Type Limits Name input -- will not be validated.\n   ** Warning ** ProcessScheduleInput: Schedule:Year=\"SCHEDULE RULESET 98\", Blank Schedule Type Limits Name input -- will not be validated.\n   ** Warning ** ProcessScheduleInput: Schedule:Year=\"SCHEDULE RULESET 99\", Blank Schedule Type Limits Name input -- will not be validated.\n   ** Warning ** ProcessScheduleInput: Schedule:Constant=\"ALWAYS OFF DISCRETE\", Blank Schedule Type Limits Name input -- will not be validated.\n   ** Warning ** ProcessScheduleInput: Schedule:Constant=\"ALWAYS ON CONTINUOUS\", Blank Schedule Type Limits Name input -- will not be validated.\n   ** Warning ** CheckUsedConstructions: There are 24 nominally unused constructions in input.\n   **   ~~~   ** For explicit details on each unused construction, use Output:Diagnostics,DisplayExtraWarnings;\n   ************* Beginning System Sizing Calculations\n   ** Warning ** GetDXCoils: Coil:Cooling:DX:SingleSpeed=\"COIL COOLING DX SINGLE SPEED 59 6KBTU/HR 11.0EER\", invalid\n   **   ~~~   ** ...Part Load Fraction Correlation Curve Name = DXCOOL-NECB2011-REF-COOLPLFFPLR 54 has out of range value.\n   **   ~~~   ** ...Curve maximum must be <= 1.0, curve max at PLR = 0.99 is 1.015\n   **   ~~~   ** ...Setting curve maximum to 1.0 and simulation continues.\n   ** Warning ** GetDXCoils: Coil:Cooling:DX:SingleSpeed=\"COIL COOLING DX SINGLE SPEED 56 5KBTU/HR 11.0EER\", invalid\n   **   ~~~   ** ...Part Load Fraction Correlation Curve Name = DXCOOL-NECB2011-REF-COOLPLFFPLR 51 has out of range value.\n   **   ~~~   ** ...Curve maximum must be <= 1.0, curve max at PLR = 0.99 is 1.015\n   **   ~~~   ** ...Setting curve maximum to 1.0 and simulation continues.\n   ** Warning ** GetDXCoils: Coil:Cooling:DX:SingleSpeed=\"COIL COOLING DX SINGLE SPEED 57 5KBTU/HR 11.0EER\", invalid\n   **   ~~~   ** ...Part Load Fraction Correlation Curve Name = DXCOOL-NECB2011-REF-COOLPLFFPLR 52 has out of range value.\n   **   ~~~   ** ...Curve maximum must be <= 1.0, curve max at PLR = 0.99 is 1.015\n   **   ~~~   ** ...Setting curve maximum to 1.0 and simulation continues.\n   ** Warning ** GetDXCoils: Coil:Cooling:DX:SingleSpeed=\"COIL COOLING DX SINGLE SPEED 58 9KBTU/HR 10.6EER\", invalid\n   **   ~~~   ** ...Part Load Fraction Correlation Curve Name = DXCOOL-NECB2011-REF-COOLPLFFPLR 53 has out of range value.\n   **   ~~~   ** ...Curve maximum must be <= 1.0, curve max at PLR = 0.99 is 1.015\n   **   ~~~   ** ...Setting curve maximum to 1.0 and simulation continues.\n   ** Warning ** GetDXCoils: Coil:Cooling:DX:SingleSpeed=\"COIL COOLING DX SINGLE SPEED 55 10KBTU/HR 10.5EER\", invalid\n   **   ~~~   ** ...Part Load Fraction Correlation Curve Name = DXCOOL-NECB2011-REF-COOLPLFFPLR 50 has out of range value.\n   **   ~~~   ** ...Curve maximum must be <= 1.0, curve max at PLR = 0.99 is 1.015\n   **   ~~~   ** ...Setting curve maximum to 1.0 and simulation continues.\n   ** Warning ** GetDXCoils: Coil:Cooling:DX:SingleSpeed=\"COIL COOLING DX SINGLE SPEED 63 7KBTU/HR 11.0EER\", invalid\n   **   ~~~   ** ...Part Load Fraction Correlation Curve Name = DXCOOL-NECB2011-REF-COOLPLFFPLR 59 has out of range value.\n   **   ~~~   ** ...Curve maximum must be <= 1.0, curve max at PLR = 0.99 is 1.015\n   **   ~~~   ** ...Setting curve maximum to 1.0 and simulation continues.\n   ** Warning ** GetDXCoils: Coil:Cooling:DX:SingleSpeed=\"COIL COOLING DX SINGLE SPEED 62 7KBTU/HR 11.0EER\", invalid\n   **   ~~~   ** ...Part Load Fraction Correlation Curve Name = DXCOOL-NECB2011-REF-COOLPLFFPLR 58 has out of range value.\n   **   ~~~   ** ...Curve maximum must be <= 1.0, curve max at PLR = 0.99 is 1.015\n   **   ~~~   ** ...Setting curve maximum to 1.0 and simulation continues.\n   ** Warning ** GetDXCoils: Coil:Cooling:DX:SingleSpeed=\"COIL COOLING DX SINGLE SPEED 60 10KBTU/HR 10.4EER\", invalid\n   **   ~~~   ** ...Part Load Fraction Correlation Curve Name = DXCOOL-NECB2011-REF-COOLPLFFPLR 56 has out of range value.\n   **   ~~~   ** ...Curve maximum must be <= 1.0, curve max at PLR = 0.99 is 1.015\n   **   ~~~   ** ...Setting curve maximum to 1.0 and simulation continues.\n   ** Warning ** GetDXCoils: Coil:Cooling:DX:SingleSpeed=\"COIL COOLING DX SINGLE SPEED 61 11KBTU/HR 10.1EER\", invalid\n   **   ~~~   ** ...Part Load Fraction Correlation Curve Name = DXCOOL-NECB2011-REF-COOLPLFFPLR 57 has out of range value.\n   **   ~~~   ** ...Curve maximum must be <= 1.0, curve max at PLR = 0.99 is 1.015\n   **   ~~~   ** ...Setting curve maximum to 1.0 and simulation continues.\n   ** Warning ** GetDXCoils: Coil:Cooling:DX:SingleSpeed=\"COIL COOLING DX SINGLE SPEED 77 6KBTU/HR 11.0EER\", invalid\n   **   ~~~   ** ...Part Load Fraction Correlation Curve Name = DXCOOL-NECB2011-REF-COOLPLFFPLR 74 has out of range value.\n   **   ~~~   ** ...Curve maximum must be <= 1.0, curve max at PLR = 0.99 is 1.015\n   **   ~~~   ** ...Setting curve maximum to 1.0 and simulation continues.\n   ** Warning ** GetDXCoils: Coil:Cooling:DX:SingleSpeed=\"COIL COOLING DX SINGLE SPEED 73 5KBTU/HR 11.0EER\", invalid\n   **   ~~~   ** ...Part Load Fraction Correlation Curve Name = DXCOOL-NECB2011-REF-COOLPLFFPLR 70 has out of range value.\n   **   ~~~   ** ...Curve maximum must be <= 1.0, curve max at PLR = 0.99 is 1.015\n   **   ~~~   ** ...Setting curve maximum to 1.0 and simulation continues.\n   ** Warning ** GetDXCoils: Coil:Cooling:DX:SingleSpeed=\"COIL COOLING DX SINGLE SPEED 75 5KBTU/HR 11.0EER\", invalid\n   **   ~~~   ** ...Part Load Fraction Correlation Curve Name = DXCOOL-NECB2011-REF-COOLPLFFPLR 72 has out of range value.\n   **   ~~~   ** ...Curve maximum must be <= 1.0, curve max at PLR = 0.99 is 1.015\n   **   ~~~   ** ...Setting curve maximum to 1.0 and simulation continues.\n   ** Warning ** GetDXCoils: Coil:Cooling:DX:SingleSpeed=\"COIL COOLING DX SINGLE SPEED 76 9KBTU/HR 10.6EER\", invalid\n   **   ~~~   ** ...Part Load Fraction Correlation Curve Name = DXCOOL-NECB2011-REF-COOLPLFFPLR 73 has out of range value.\n   **   ~~~   ** ...Curve maximum must be <= 1.0, curve max at PLR = 0.99 is 1.015\n   **   ~~~   ** ...Setting curve maximum to 1.0 and simulation continues.\n   ** Warning ** GetDXCoils: Coil:Cooling:DX:SingleSpeed=\"COIL COOLING DX SINGLE SPEED 74 10KBTU/HR 10.4EER\", invalid\n   **   ~~~   ** ...Part Load Fraction Correlation Curve Name = DXCOOL-NECB2011-REF-COOLPLFFPLR 71 has out of range value.\n   **   ~~~   ** ...Curve maximum must be <= 1.0, curve max at PLR = 0.99 is 1.015\n   **   ~~~   ** ...Setting curve maximum to 1.0 and simulation continues.\n   ** Warning ** GetDXCoils: Coil:Cooling:DX:SingleSpeed=\"COIL COOLING DX SINGLE SPEED 81 7KBTU/HR 11.0EER\", invalid\n   **   ~~~   ** ...Part Load Fraction Correlation Curve Name = DXCOOL-NECB2011-REF-COOLPLFFPLR 79 has out of range value.\n   **   ~~~   ** ...Curve maximum must be <= 1.0, curve max at PLR = 0.99 is 1.015\n   **   ~~~   ** ...Setting curve maximum to 1.0 and simulation continues.\n   ** Warning ** GetDXCoils: Coil:Cooling:DX:SingleSpeed=\"COIL COOLING DX SINGLE SPEED 80 7KBTU/HR 11.0EER\", invalid\n   **   ~~~   ** ...Part Load Fraction Correlation Curve Name = DXCOOL-NECB2011-REF-COOLPLFFPLR 78 has out of range value.\n   **   ~~~   ** ...Curve maximum must be <= 1.0, curve max at PLR = 0.99 is 1.015\n   **   ~~~   ** ...Setting curve maximum to 1.0 and simulation continues.\n   ** Warning ** GetDXCoils: Coil:Cooling:DX:SingleSpeed=\"COIL COOLING DX SINGLE SPEED 78 10KBTU/HR 10.4EER\", invalid\n   **   ~~~   ** ...Part Load Fraction Correlation Curve Name = DXCOOL-NECB2011-REF-COOLPLFFPLR 75 has out of range value.\n   **   ~~~   ** ...Curve maximum must be <= 1.0, curve max at PLR = 0.99 is 1.015\n   **   ~~~   ** ...Setting curve maximum to 1.0 and simulation continues.\n   ** Warning ** GetDXCoils: Coil:Cooling:DX:SingleSpeed=\"COIL COOLING DX SINGLE SPEED 79 11KBTU/HR 10.1EER\", invalid\n   **   ~~~   ** ...Part Load Fraction Correlation Curve Name = DXCOOL-NECB2011-REF-COOLPLFFPLR 76 has out
[...]
aD40Opz4tMvGdGEIFejC+NNkqIJQa5SF2ab5EUTgly9Lgw2SY0m3IyuZhemmmRHE4JczS6MNEWQtp8jGdKEoPgtkhxpQlB8+CVLmhAUH37JkyYExYdfM6UpSbZuFyabJktTkmz1Lgw3zZemJNkaXphvmjJNuSttHS+MOM2apiTZOl6YcojTEKchTntAiDitWYjTEKchTissxGmI03q9KsRprf17PB9x2v5CnLZbA3xP68j8AuCAAw444IADDjjggAMOOKPHOTLtADTQQAMNNNBAAw000EADzXhonozuABxwwAEHHHDAAQcccMABp34/xGnbhThtJ05bjEScth6DOG19MHHa4u5nobWSG1fQ1BU0cwXNXUELV9DSFbRyBa1dQa3f32tJtm4nW7mTrd3JVu9k63eyFTzZGp5sFU+2jmdbx7Pv/rZ1PNs6nvt1vLs4rZ1VL05TcuJ3qV6cpuTEt0C9OE3JiW+AenGakhOffkGcJgW5Gl0Yb4I4TQpylbow2wRxmhTk6nVhsAniNOlmdDW7MNUEcZoU5Gp2YaTVi9PaOYI4TQqK3yJBnCYFxYdfEKdJQfHhF8RpUlB8+BVxmpZk63ZhsiniNC3JVu/CcFPEaVqSreGF+aaI07S70tbxwohTxGlakq3jhSmHOA1xGuK0B4SI05qFOA1xGuK0wkKchjit16tCnNbav8fzEaftL8RpuzXA97SOzC8ADjjggAMOOOCAAw444IAzepwj0w5AAw000EADDTTQQAMNNNCMh+bJ6A7AAQcccMABBxxwwAEHHHDq90Octl2I03bitOU4xGnz0xGI024hDyVOOz3JFm+akjM15cxMOXNTzsKUszTlrEw5a1NO62f3UpCr0clV6eTqdHKVOrlanVy1Tq5eJ1exk6vZ2dXsbLurXc3OrmbnXs3uLkhrRdX70YSY8B2qt6MJMeG5r3ejCTHhma83owkx4XkXvGhKjqnH8RgTpGhKjqnK8QwTjGhKjqnN8QATdGjKPWjqczy9BBeakmPqczy66kVorRjBg6bkhG+PYEFTcsLjLjjQlJzwuAsGNCUnPO6K/0wKcjU6nmCK/EwKcpU6HmKK+UwKcvU6nmOK9ky6GV3NjkeZ4jyTglzNjqcZwjOEZwjPHhAiPGsWwjOEZwjPCgvhGcKzXq8K4Vlr/x7PR3i2vxCe7dYA3686Mi8AOOCAAw444IADDjjggAPO6HGOTBcADTTQQAMNNNBAAw000EAzHponoykABxxwwAEHHHDAAQcccMCp3w/h2XYhPNsJz1YjEZ6lMQjP0gGFZ6dzk/FMCJq6gmauoLkraOEKWrqCVq6gtSvoox/cK0m2bidbuZOt3clW72Trd7IVPNkanmwVT7aOZ1vHs+/+tnU82zqe+3W8jwhtP0sxodXnxO+S4kKrz4lvAcWGVp8T3wCKD60+Jz79khFNCHI1ujDeJCmaEOQqdWG2SV40IcjV68Jgk9Rows3oanZhqkl2NCHI1ezCSFMEafs5kiFNCIrfIsmRJgTFh1+ypAlB8eGXPGlCUHz4NVOakmTrdmGyabI0JclW78Jw03xpSpKt4YX5pinTlLvS1vHCiNOsaUqSreOFKYc4DXEa4rQHhIjTmoU4DXEa4rTCQpyGOK3Xq0Kc1tq/x/MRp+0vxGm7NcD3tI7MLwAOOOCAAw444IADDjjggDN6nCPTDkADDTTQQAMNNNBAAw000IyH5snoDsABBxxwwAEHHHDAAQcccOr3Q5y2XYjTduK09UjEaXkM4rR8MHHa4u5nobWSG1fQ1BU0cwXNXUELV9DSFbRyBa1dQa3f32tJtm4nW7mTrd3JVu9k63eyFTzZGp5sFU+2jmdbx7Pv/rZ1PNs6nvt1vLs4rZ1VL05TcuJ3qV6cpuTEt0C9OE3JiW+AenGakhOffkGcJgW5Gl0Yb4I4TQpylbow2wRxmhTk6nVhsAniNOlmdDW7MNUEcZoU5Gp2YaTVi9PaOYI4TQqK3yJBnCYFxYdfEKdJQfHhF8RpUlB8+BVxmpZk63ZhsiniNC3JVu/CcFPEaVqSreGF+aaI07S70tbxwohTxGlakq3jhSmHOA1xGuK0B4SI05qFOA1xGuK0wkKchjit16tCnNbav8fzEaftL8RpuzXA97SOzC8ADjjggAMOOOCAAw444IAzepwj0w5AAw000EADDTTQQAMNNNCMh+bJ6A7AAQcccMABBxxwwAEHHHDq90Octl2I0+7FaauReNOmY/CmTfGm1QXhTXs8CG9apyS8aXjT8KbhTcObhjcNbxreNLxpP3sz4k17PAhv2qNBeNPwpuFNw5tmS8Kb1i0Jb1oMgzcNb9rHC2/aPT7etI8X3rQuC29av+fjTcOb1utV4U1r7d/j+XjT9hfetN0a4GtaR6YXAAcccMABBxxwwAEHHHDAGT3OkVkHoIEGGmiggQYaaKCBBhpoxkPzZGwH4IADDjjggAMOOOCAAw449fvhTdsuvGk7b9rpSMRpszGI02YHE6ednmSLN03JmZpyZqacuSlnYcpZmnJWppy1Kaf1s3spyNXo5Kp0cnU6uUqdXK1OrlonV6+Tq9jJ1ezsana23dWuZmdXs3OvZncXpLWi6v1oQkz4DtXb0YSY8NzXu9GEmPDM15vRhJjwvAteNCXH1ON4jAlSNCXHVOV4hglGNCXH1OZ4gAk6NOUeNPU5nl6CC03JMfU5Hl31IrRWjOBBU3LCt0ewoCk54XEXHGhKTnjcBQOakhMed8V/JgW5Gh1PMEV+JgW5Sh0PMcV8JgW5eh3PMUV7Jt2MrmbHo0xxnklBrmbH0wzhGcIzhGcPCBGeNQvhGcIzhGeFhfAM4VmvV4XwrLV/j+cjPNtfCM92a4DvVx2ZFwAccMABBxxwwAEHHHDAAWf0OEemC4AGGmiggQYaaKCBBhpooBkPzZPRFIADDjjggAMOOOCAAw444NTvh/BsuxCe7YRnaSTCs/kYhGfzAwrPTucm45kQNHUFzVxBc1fQwhW0dAWtXEFrV9BHP7hXkmzdTrZyJ1u7k63eydbvZCt4sjU82SqebB3Pto5n3/1t63i2dTz363gfEdp+lmJCq8+J3yXFhVafE98Cig2tPie+ARQfWn1OfPolI5oQ5Gp0YbxJUjQhyFXqwmyTvGhCkKvXhcEmqdGEm9HV7MJUk+xoQpCr2YWRpgjS9nMkQ5oQFL9FkiNNCIoPv2RJE4Liwy950oSg+PBrpjQlydbtwmTTZGlKkq3eheGm+dKUJFvDC/NNU6Ypd6Wt44URp1nTlCRbxwtTDnEa4jTEaQ8IEac1C3Ea4jTEaYWFOA1xWq9XhTittX+P5yNO21+I03ZrgO9pHZlfABxwwAEHHHDAAQcccMABZ/Q4R6YdgAYaaKCBBhpooIEGGmigGQ/Nk9EdgAMOOOCAAw444IADDjjg1O+HOG27EKftxGl5JOK0xRjEaYuDidMWdz8LrZXcuIKmrqCZK2juClq4gpauoJUraO0Kav3+XkuydTvZyp1s7U62eidbv5Ot4MnW8GSreLJ1PNs6nn33t63j2dbx3K/j3cVp7ax6cZqSE79L9eI0JSe+BerFaUpOfAPUi9OUnPj0C+I0KcjV6MJ4E8RpUpCr1IXZJojTpCBXrwuDTRCnSTejq9mFqSaI06QgV7MLI61enNbOEcRpUlD8FgniNCkoPvyCOE0Kig+/IE6TguLDr4jTtCRbtwuTTRGnaUm2eheGmyJO05JsDS/MN0Wcpt2Vto4XRpwiTtOSbB0vTDnEaYjTEKc9IESc1izEaYjTEKcVFuI0xGm9XhXitNb+PZ6POG1/IU7brQG+p3VkfgFwwAEHHHDAAQcccMABB5zR4xyZdgAaaKCBBhpooIEGGmiggWY8NE9GdwAOOOCAAw444IADDjjggFO/H+K07UKcthOnTUciTluOQZy2PJg47fQkW7xpSs7UlDMz5cxNOQtTztKUszLlrE05rZ/dS0GuRidXpZOr08lV6uRqdXLVOrl6nVzFTq5mZ1ezs+2udjU7u5qdezW7uyCtFVXvRxNiwneo3o4mxITnvt6NJsSEZ77ejCbEhOdd8KIpOaYex2NMkKIpOaYqxzNMMKIpOaY2xwNM0KEp96Cpz/H0ElxoSo6pz/HoqhehtWIED5qSE749ggVNyQmPu+BAU3LC4y4Y0JSc8Lgr/jMpyNXoeIIp8jMpyFXqeIgp5jMpyNXreI4p2jPpZnQ1Ox5livNMCnI1O55mCM8QniE8e0CI8KxZCM8QniE8KyyEZwjPer0qhGet/Xs8H+HZ/kJ4tlsDfL/qyLwA4IADDjjggAMOOOCAAw44o8c5Ml0ANNBAAw000EADDTTQQAPNeGiejKYAHHDAAQcccMABBxxwwAGnfj+EZ9uF8GwnPJuNRHi2GoPwbHVA4dnp3GQ8E4KmrqCZK2juClq4gpauoJUraO0K+ugH90qSrdvJVu5ka3ey1TvZ+p1sBU+2hidbxZOt49nW8ey7v20dz7aO534d7yNC289STGj1OfG7pLjQ6nPiW0CxodXnxDeA4kOrz4lPv2REE4JcjS6MN0mKJgS5Sl2YbZIXTQhy9bow2CQ1mnAzuppdmGqSHU0IcjW7MNIUQdp+jmRIE4Lit0hypAlB8eGXLGlCUHz4JU+aEBQffs2UpiTZul2YbJosTUmy1bsw3DRfmpJka3hhvmnKNOWutHW8MOI0a5qSZOt4YcohTkOchjjtASHitGYhTkOchjitsBCnIU7r9aoQp7X27/F8xGn7C3Habg3wPa0j8wuAAw444IADDjjggAMOOOCMHufItAPQQAMNNNBAAw000EADDTTjoXkyugNwwAEHHHDAAQcccMABB5z6/RCnbRfitJ04bT4Scdp6DOK09cHEaYu7n4XWSm5cQVNX0MwVNHcFLVxBS1fQyhW0dgW1fn+vJdm6nWzlTrZ2J1u9k63fyVbwZGt4slU82TqebR3Pvvvb1vFs63ju1/Hu4rR2Vr04TcmJ36V6cZqSE98C9eI0JSe+AerFaUpOfPoFcZoU5Gp0YbwJ4jQpyFXqwmwTxGlSkKvXhcEmiNOkm9HV7MJUE8RpUpCr2YWRVi9Oa+cI4jQpKH6LBHGaFBQffkGcJgXFh18Qp0lB8eFXxGlakq3bhcmmiNO0JFu9C8NNEadpSbaGF+abIk7T7kpbxwsjThGnaUm2jhemHOI0xGmI0x4QIk5rFuI0xGmI0woLcRritF6vCnFaa/8ez0ectr8Qp+3WAN/TOjK/ADjggAMOOOCAAw444IADzuhxjkw7AA000EADDTTQQAMNNNBAMx6aJ6M7AAcccMABBxxwwAEHHHDAqd8Pcdp2IU7bidMW4xCnLU5HIE67hTyUOO30JFu8aUrO1JQzM+XMTTkLU87SlLMy5axNOa2f3UtBrkYnV6WTq9PJVerkanVy1Tq5ep1cxU6uZmdXs7PtrnY1O7uanXs1u7sgrRVV70cTYsJ3qN6OJsSE577ejSbEhGe+3owmxITnXfCiKTmmHsdjTJCiKTmmKsczTDCiKTmmNscDTNChKfegqc/x9BJcaEqOqc/x6KoXobViBA+akhO+PYIFTckJj7vgQFNywuMuGNCUnPC4K/4zKcjV6HiCKfIzKchV6niIKeYzKcjV63iOKdoz6WZ0NTseZYrzTApyNTueZgjPEJ4hPHtAiPCsWQjPEJ4hPCsshGcIz3q9KoRnrf17PB/h2f5CeLZbA3y/6si8AOCAAw444IADDjjggAMOOKPHOTJdADTQQAMNNNBAAw000EADzXhonoymABxwwAEHHHDAAQcccMABp34/hGfbhfBsJzxbjkR4lsYgPEsHFJ6dzk3GMyFo6gqauYLmrqCFK2jpClq5gtauoI9+cK8k2bqdbOVOtnYnW72Trd/JVvBka3iyVTzZOp5tHc+++9vW8WzreO7X8T4itP0sxYRWnxO/S4oLrT4nvgUUG1p9TnwDKD60+pz49EtGNCHI1ejCeJOkaEKQq9SF2SZ50YQgV68Lg01Sowk3o6vZhakm2dGEIFezCyNNEaTt50iGNCEofoskR5oQFB9+yZImBMWHX/KkCUHx4ddMaUqSrduFyabJ0pQkW70Lw03zpSlJtoYX5pumTFPuSlvHCyNOs6YpSbaOF6Yc4jTEaYjTHhAiTmsW4jTEaYjTCgtxGuK0Xq8KcVpr/x7PR5y2vxCn7dYA39M6Mr8AOOCAAw444IADDjjggAPO6HGOTDsADTTQQAMNNNBAAw000EAzHponozsABxxwwAEHHHDAAQcccMCp3w9x2nYhTtuJ01YjEaflMYjT8sHEaYu7n4XWSm5cQVNX0MwVNHcFLVxBS1fQyhW0dgW1fn+vJdm6nWzlTrZ2J1u9k63fyVbwZGt4slU82TqebR3Pvvvb1vFs63ju1/Hu4rR2Vr04TcmJ36V6cZqSE98C9eI0JSe+AerFaUpOfPoFcZoU5Gp0YbwJ4jQpyFXqwmwTxGlSkKvXhcEmiNOkm9HV7MJUE8RpUpCr2YWRVi9Oa+cI4jQpKH6LBHGaFBQffkGcJgXFh18Qp0lB8eFXxGlakq3bhcmmiNO0JFu9C8NNEadpSbaGF+abIk7T7kpbxwsjThGnaUm2jhemHOI0xGmI0x4QIk5rFuI0xGmI0woLcRritF6vCnFaa/8ez0ectr8Qp+3WAN/TOjK/ADjggAMOOOCAAw444IADzuhxjkw7AA000EADDTTQQAMNNNBAMx6aJ6M7AAcccMABBxxwwAEHHHDAqd8Pcdp2IU7bidPWIxGnTccgTpseTJx2epIt3jQlZ2rKmZly5qachSlnacpZmXLWppzWz+6lIFejk6vSydXp5Cp1crU6uWqdXL1OrmInV7Ozq9nZdle7mp1dzc69mt1dkNaKqvejCTHhO1RvRxNiwnNf70YTYsIzX29GE2LC8y540ZQcU4/jMSZI0ZQcU5XjGSYY0ZQcU5vjASbo0JR70NTneHoJLjQlx9TneHTVi9BaMYIHTckJ3x7BgqbkhMddcKApOeFxFwxoSk543BX/mRTkanQ8wRT5mRTkKnU8xBTzmRTk6nU8xxTtmXQzupodjzLFeSYFuZodTzOEZwjPEJ49IER41iyEZwjPEJ4VFsIzhGe9XhXCs9b+PZ6P8Gx/ITzbrQG+X3VkXgBwwAEHHHDAAQcccMABB5zR4xyZLgAaaKCBBhpooIEGGmiggWY8NE9GUwAOOOCAAw444IADDjjggFO/H8Kz7UJ4di88G4vvbDYG39kM3xm+s8d/Zo/vDN8ZvjN8Z12C8J3hO8N3hu8M3xm+M3xn+M56DS58Z/jOOgXhO3s8CN/Z40H4zh4PwncWweA7w3f28cJ3do+P7+zjhe+sy8J31u/5+M7wnfV6VfjOWvv3eD6+s/2F72y3Bvh61ZFpAcABBxxwwAEHHHDAAQcccEaPc2S2AGiggQYaaKCBBhpooIEGmvHQPBlLATjggAMOOOCAAw444IADTv1++M62C9/Zznd2OhLh2XwMwrP5AYVnp3OT8UwImrqCZq6guSto4QpauoJWrqC1K+ijH9wrSbZuJ1u5k63dyVbvZOt3shU82RqebBVPto5nW8ez7/62dTzbOp77dbyPCG0/SzGh1efE75LiQqvPiW8BxYZWnxPfAIoPrT4nPv2SEU0IcjW6MN4kKZoQ5Cp1YbZJXjQhyNXrwmCT1GjCzehqdmGqSXY0IcjV7MJIUwRp+zmSIU0Iit8iyZEmBMWHX7KkCUHx4Zc8aUJQfPg1U5qSZOt2YbJpsjQlyVbvwnDTfGlKkq3hhfmmKdOUu9LW8cKI06xpSpKt44UphzgNcRritAeEiNOahTgNcRritMJCnIY4rderQpzW2r/H8xGn7S/Eabs1wPe0jswvAA444IADDjjggAMOOOCAM3qcI9MOQAMNNNBAAw000EADDTTQjIfmyegOwAEHHHDAAQcccMABBxxw6vdDnLZdiNN24rQ0EnHaYgzitMXBxGmLu5+F1kpuXEFTV9DMFTR3BS1cQUtX0MoVtHYFtX5/ryXZup1s5U62didbvZOt38lW8GRreLJVPNk6nm0dz77729bxbOt47tfx7uK0dla9OE3Jid+lenGakhPfAvXiNCUnvgHqxWlKTnz6BXGaFORqdGG8CeI0KchV6sJsE8RpUpCr14XBJojTpJvR1ezCVBPEaVKQq9mFkVYvTmvnCOI0KSh+iwRxmhQUH35BnCYFxYdfEKdJQfHhV8RpWpKt24XJpojTtCRbvQvDTRGnaUm2hhfmmyJO0+5KW8cLI04Rp2lJto4XphziNMRpiNMeECJOaxbiNMRpiNMKC3Ea4rRerwpxWmv/Hs9HnLa/EKft1gDf0zoyvwA44IADDjjggAMOOOCAA87ocY5MOwANNNBAAw000EADDTTQQDMemiejOwAHHHDAAQcccMABBxxwwKnfD3HadiFO24nT8kjEacsxiNOWBxOnnZ5kizdNyZmacmamnLkpZ2HKWZpyVqactSmn9bN7KcjV6OSqdHJ1OrlKnVytTq5aJ1evk6vYydXs7Gp2tt3VrmZnV7Nzr2Z3F6S1our9aEJM+A7V29GEmPDc17vRhJjwzNeb0YSY8LwLXjQlx9TjeIwJUjQlx1TleIYJRjQlx9TmeIAJOjTlHjT1OZ5eggtNyTH1OR5d9SK0VozgQVNywrdHsKApOeFxFxxoSk543AUDmpITHnfFfyYFuRodTzBFfiYFuUodDzHFfCYFuXodzzFFeybdjK5mx6NMcZ5JQa5mx9MM4RnCM4RnDwgRnjUL4RnCM4RnhYXwDOFZr1eF8Ky1f4/nIzzbXwjPdmuA71cdmRcAHHDAAQcccMABBxxwwAFn9DhHpguABhpooIEGGmiggQYaaKAZD82T0RSAAw444IADDjjggAMOOODU74fwbLsQnu2EZ9ORCM9WYxCerQ4oPDudm4xnQtDUFTRzBc1dQQtX0NIVtHIFrV1BH/3gXkmydTvZyp1s7U62eidbv5Ot4MnW8GSreLJ1PNs6nn33t63j2dbx3K/jfURo+1mKCa0+J36XFBdafU58Cyg2tPqc+AZQfGj1OfHpl4xoQpCr0YXxJknRhCBXqQuzTfKiCUGuXhcGm6RGE25GV7MLU02yowlBrmYXRpoiSNvPkQxpQlD8FkmONCEoPvySJU0Iig+/5EkTguLDr5nSlCRbtwuTTZOlKUm2eheGm+ZLU5JsDS/MN02ZptyVto4XRpxmTVOSbB0vTDnEaYjTEKc9IESc1izEaYjTEKcVFuI0xGm9XhXitNb+PZ6POG1/IU7brQG+p3VkfgFwwAEHHHDAAQcccMABB5zR4xyZdgAaaKCBBhpooIEGGmiggWY8NE9GdwAOOOCAAw444IADDjjggFO/H+K07UKcthOnzUYiTluPQZy2Ppg4bXH3s9BayY0raOoKmrmC5q6ghSto6QpauYLWrqDW7++1JFu3k63cydbuZKt3svU72QqebA1PtoonW8ezrePZd3/bOp5tHc/9Ot5dnNbOqhenKTnxu1QvTlNy4lugXpym5MQ3QL04TcmJT78gTpOCXI0ujDdBnCYFuUpdmG2COE0KcvW6MNgEcZp0M7qaXZhqgjhNCnI1uzDS6sVp7RxBnCYFxW+RIE6TguLDL4jTpKD48AviNCkoPvyKOE1LsnW7MNkUcZqWZKt3Ybgp4jQtydbwwnxTxGnaXWnreGHEKeI0LcnW8cKUQ5yGOA1x2gNCxGnNQpyGOA1xWmEhTkOc1utVIU5r7d/j+YjT9hfitN0a4HtaR+YXAAcccMABBxxwwAEHHHDAGT3OkWkHoIEGGmiggQYaaKCBBhpoxkPzZHQH4IADDjjggAMOOOCAAw449fshTtsuxGk7cdp8HOK05ekIxGm3kIcSp52eZIs3TcmZmnJmppy5KWdhylmaclamnLUpp/WzeynI1ejkqnRydTq5Sp1crU6uWidXr5Or2MnV7Oxqdrbd1a5mZ1ezc69mdxektaLq/WhCTPgO1dvRhJjw3Ne70YSY8MzXm9GEmPC8C140JcfU43iMCVI0JcdU5XiGCUY0JcfU5niACTo05R409TmeXoILTckx9TkeXfUitFaM4EFTcsK3R7CgKTnhcRccaEpOeNwFA5qSEx53xX8mBbkaHU8wRX4mBblKHQ8xxXwmBbl6Hc8xRXsm3YyuZsejTHGeSUGuZsfTDOEZwjOEZw8IEZ41C+EZwjOEZ4WF8AzhWa9XhfCstX+P5yM8218Iz3ZrgO9XHZkXABxwwAEHHHDAAQcccMABZ/Q4R6YLgAYaaKCBBhpooIEGGmigGQ/Nk9EUgAMOOOCAAw444IADDjjg1O+H8Gy7EJ7thGeLkQjP0hiEZ+mAwrPTucl4JgRNXUEzV9DcFbRwBS1dQStX0NoV9NEP7pUkW7eTrdzJ1u5kq3ey9TvZCp5sDU+2iidbx7Ot49l3f9s6nm0dz/063keEtp+lmNDqc+J3SXGh1efEt4BiQ6vPiW8AxYdWnxOffsmIJgS5Gl0Yb5IUTQhylbow2yQvmhDk6nVhsElqNOFmdDW7MNUkO5oQ5Gp2YaQpgrT9HMmQJgTFb5HkSBOC4sMvWdKEoPjwS540ISg+/JopTUmydbsw2TRZmpJkq3dhuGm+NCXJ1vDCfNOUacpdaet4YcRp1jQlydbxwpRDnIY4DXHaA0LEac1CnIY4DXFaYSFOQ5zW61UhTmvt3+P5iNP2F+K03Rrge1pH5hcABxxwwAEHHHDAAQcccMAZPc6RaQeggQYaaKCBBhpooIEGGmjGQ/NkdAfggAMOOOCAAw444IADDjj1+yFO2y7EaTtx2nIk4rQ8BnFaPpg4bXH3s9BayY0raOoKmrmC5q6ghSto6QpauYLWrqDW7++1JFu3k63cydbuZKt3svU72QqebA1PtoonW8ezrePZd3/bOp5tHc/9Ot5dnNbOqhenKTnxu1QvTlNy4lugXpym5MQ3QL04TcmJT78gTpOCXI0ujDdBnCYFuUpdmG2COE0KcvW6MNgEcZp0M7qaXZhqgjhNCnI1uzDS6sVp7RxBnCYFxW+RIE6TguLDL4jTpKD48AviNCkoPvyKOE1LsnW7MNkUcZqWZKt3Ybgp4jQtydbwwnxTxGnaXWnreGHEKeI0LcnW8cKUQ5yGOA1x2gNCxGnNQpyGOA1xWmEhTkOc1utVIU5r7d/j+YjT9hfitN0a4HtaR+YXAAcccMABBxxwwAEHHHDAGT3OkWkHoIEGGmiggQYaaKCBBhpoxkPzZHQH4IADDjjggAMOOOCAAw449fshTtsuxGk7cdpqJOK06RjEadODidNOT7LFm6bkTE05M1PO3JSzMOUsTTkrU87alNP62b0U5Gp0clU6uTqdXKVOrlYnV62Tq9fJVezkanZ2NTvb7mpXs7Or2blXs7sL0lpR9X40ISZ8h+rtaEJMeO7r3WhCTHjm681oQkx43gUvmpJj6nE8xgQpmpJjqnI8wwQjmpJjanM8wAQdmnIPmvocTy/BhabkmPocj656EVorRvCgKTnh2yNY0JSc8LgLDjQlJzzuggFNyQmPu+I/k4JcjY4nmCI/k4JcpY6HmGI+k4JcvY7nmKI9k25GV7PjUaY4z6QgV7PjaYbwDOEZwrMHhAjPmoXwDOEZwrPCQniG8KzXq0J41tq/x/MRnu0vhGe7NcD3q47MCwAOOOCAAw444IADDjjggDN6nCPTBUADDTTQQAMNNNBAAw000IyH5sloCsABBxxwwAEHHHDAAQcccOr3Q3i2XQjPdsKz9UiEZ7MxCM9mBxOepdnpyeneSjOL/8wYOx0mdjZM7HyY2MUwscthYlfDxK6HiW393N+ZO9A5SwMdtDTQSUsDHbU00FlLAx22NNBpSwMdtzTQecsDnbc81Fwb6Lzlgc5bVs5bd7FcKbneM+dL7fru1lvofKldb7J6R50vtestVm+w86V2vcEEv50xdpjT1fnjgiDDM8YOc8A6f1YQzHnG2GHOWOcPCoJmzzgVhjllnT8lCE4+Y+wwp6zzR4R6gV8pVfD5GWO7vrWC7c8Y2/UCE1yAxtiuF5hgCjTGdr3AFI+gM3egc9b5k4IiHXTmDnTUOn9YUAyFztyBTlvnzwuKztA5JwY6b50/MijuQ2fuQOet86cGRImIEhElPiBElNgsRImIEhElFhaiRESJvV4VosTW/j2ejyhxfyFK3K0Bvpd5ZD4RcMABBxxwwAEHHHDAAQec0eMcmWYEGmiggQYaaKCBBhpooIFmPDRPRm8CDjjggAMOOOCAAw444IBTv99/gijxj5vv326uzm7eXW0mz7/6BG/icXkTN1c/nL/cTP79rGneby4v306av7Dme86z069GolCcj0GhOD+YQnE+P5mu99Z0blEoGmOnw8TOhomdDxO7GCZ2OUzsapjY9TCxLdOBM3egc5YGOmhpoJOWBjpqaaCzlgY6bGmg05YGOm5poPOWBzpveai5NtB5ywOdt6yct+4KxVJyvULRl9r13a1XKPpSu95k9QpFX2rXW6xeoehL7XqDCQpFY+wwp6vzxwVBoWiMHeaAdf6sICgUjbHDnLHOHxQEhaJxKgxzyjp/ShAUisbYYU5Z548I9QrFUqqgUDTGdn1rBYWiMbbrBSYoFI2xXS8wQaFojO16gSkKRWfuQOes8ycFRaHozB3oqHX+sKAoFJ25A522zp8XFIWic04MdN46f2RQFIrO3IHOW+dPDSgUUSiiUHxAiEKxWSgUUSiiUCwsFIooFHu9KhSKrf17PB+F4v5CobhbA3xj88hMI+CAAw444IADDjjggAMOOKPHOTIBCTTQQAMNNNBAAw000EADzXhonoz4BBxwwAEHHHDAAQcccMABp34/FIo/v56uQvHd27cX7yefn1/dqRNH4kxcjMGZuDiYM/HuP9fKmUw5U1POzJQzN+UsTDlLU87KlLM25bScAlKQq9HJVenk6nRylTq5Wp1ctU6uXidXsZOr2dnV7Gy7q13Nzq5m517N7u7ya0XVy/uEmPAdqtfzCTHhua8X8Akx4ZmvV+wJMeF5FyR6So6px/EYE7x4So6pyvEME1R3So6pzfEAE+x1yj1o6nM8vQQhnZJj6nM8uuodc60YQSqn5IRvj6CNU3LC4y6I4ZSc8LgL6jclJzzuitxNCnI1Op5giq9NCnKVOh5iioJNCnL1Op5jilVNuhldzY5HmSJKk4JczY6n2YOgf706v7w6v3k/SZNPJ8//8O7NJ42FavHp/zx78+lp+vTuP/968/LTaYrG3Gnr/6P3+eez2Xpt2CIPv8V0+C1mw28xH36LxfBbLIffYjX8Fuvht2hN9qH2OMD5Tgc44OkAJzwd4IinA5zxdIBDng5wytMBjnk6wDnPBzjn+RBz/ADnPB/gnOe6c57v9ji7ifY47faxajrNebUwbBH/bdi2iP8ybFvEfxe2LeIr17ZFfOPatogvXNsW8X1r2yK+bm1bFD5W+fY4wPkufKzy7XGAE174WOXb4wBnvPCxyrfHAU554WOVb48DnPPCxyrfHoeY4wc454WPVb496s75tNnjq6vzYI+87vaxKqXlcjo1bBH/bdi2iP8ybFvEfxe2LeIr17ZFfOPatogvXNsW8X1r2yL+bpRti8IXAn17xN+o8u0Rf9nKt0f8PSzfHvFXtHx7xN9L9O0Rf2XRt0f8bUbfHvEXHX17HOCcFz5W+fY4xBw/wCAvfKzy7VE3ymfNHn/89l20x6rbx6rmv3Fp/o+GLeK/DdsW8V+GbYv478K2RfyxyrZF/LHKtkX8scq2RfyxyrZFfN3atih8rPLtEX+s8u0Rf6zy7RF/rPLtEX+s8u0Rf6zy7RF/rPLtEX+s8u0Rf6zy7XGAc174WOXb4xBz/ACDvPCxyrdH3SifN3v8++ZVtMey28eqX//6iy+WS8MW8d+GbYv4L8O2Rfx3Ydsi/lhl2yL+WGXbIv5YZdsi/lhl2yK+bm1bFD5W+faIP1b59og/Vvn2iD9W+faIP1b59og/Vvn2iD9W+faIP1b59og/Vvn2OMA5L3ys8u1xiDl+gEFe+Fjl26NulC/uPrq920R7LLp9rPrii8XCskX8t2HbIv7LsG0R/13Ytog/Vtm2iD9W2baIP1bZtog/Vtm2iK9b2xaFj1W+PeKPVb494o9Vvj3ij1W+PeKPVb494o9Vvj3ij1W+PeKPVb494o9Vvj0OcM4LH6t8exxijh9gkBc+Vvn2qBvly2aP315GX4vP824fq1arnOdzwxbx34Zti/gvw7ZF/Hdh2yL+WGXbIv5YZdsi/lhl2yL+WGXbouSdMm1RlK259ijZqlx7lERWrj1KjivXHiX9lWuPkvPNtUdJB+fao2SKc+1Rksi59jjAOS98rPLtcYg5foBBXvhY5dvj8VH+5y6G162GefLZ5M3mx3uD7J049vn1D69f3BlgH1XF3rucrzc3/3j57s2r6+fz0xeTlOYvJtPmP+V5N93sT7cYOw/1q1dfnN1sXl9evf/8p/PrDybk3evvIIy+Dfjd1avN1e/fNWLizn+w4Xjf5vjt5uz63dXmA0bjVt6+7wMbuXmYh3mYh3mYh3mYh3mYh3mYh3mYh3mYh3mYh3mYh3mYh3mYh3mYh3mYh3mYh3mYh3mYh3mYh3mYh3mYh3mYh3mYh3mYh3mYh3mYh3mYh3mYh3mYh3n4/6mH359c/rC5ujp/tfntWfPD2nRyKv5etflp7HX7p7F/2Fydb663P6999uL+B8RvLy5vTi7O32we/Yns9c/9TvfxX9Zen9z9V8+/vbw4uzm/fHML9ez6ZvP2068331xebZ51++XzbzavN29etV/Qh3/2fHH6YjJtfrl82vyQufkfzy4239w0YI9E38ee/OX15ubLNzfN+3O7xTfv3ry8I33+yeQ/Hom4J9zs/vSfHv0td7POv5k8v/n2/Prk+u5vpdtGzdr7Qye379+XZy+/ff5/gfum3eM3Px2/Zd/m/uXt5fV5E/jr23/c5dXcrybmZ6iuLn/sh3SPdf7m1aY5D5+mFz3/9P36rvYPfnO+uWj69nz7nn44J6+vLt+93bya/N3fTf7L9p//dPKXb8+ut79/bw7YJ/uPvv/ZR2/fkJOz16+/avY4udi8eX3z7eQfJnnyPybPPr+4eDb5VfsZ1xfnLzfPP02f/On0z588et4evJLLq8nz725fyunfT7673WZb1e2+zT/7b7c3Tv+/oGY1Nd7m/em7P5/8dfN+8tlnn3148+oS71K3f+3f9X2p9+vrq83ZX2v+8N96/pm+z2/er+2r+6ypdVOGbVPuRA4nfzm7vj5//Wbz6otGEXH9p7t38s91b+X9X/Tbd9ffPq/9u7j9K/3Vh7/P+pN0cfGrLq/ypHlm7S7XN1eXf9102+fDc2t3unx79vL85n23rbZPrn5Vd1vcb1Wbcn+RtK+VmuPR+/Jp1v1xbl88k08nqW9an+PWnfVvL+6maqfn/+2xzxTN+uUvJ//6b3+c/J/f/dvvJ3/43e//+C//658mv/ndP/3LF5N//vL3X3YL+Or21t78dNZ8RJvcXE6uL69uJm/efX/bg5eTO6XJ9eTs+uXth5fzN687JN6/903O3mQ+ezH5uvvlcrW5eXf1ZvL27Op689XF5dnN87Pmyv/k9q9y7599fffPOr2Zj39E29t2+xIeC/7bsKaX3efPu+N+d9if/+LV5puzdxc3k7dXl7d32OYXLya/+K+r1RdffPnlLwYWz4ADDjjggAMOOOCAAw444Py/iTO5fvf97f8XePJq0/zDyauz9w3R1eYVNNBAAw000EADDTTQQAMNNGWaH+++mvURzdcX7zbggAMOOOCAAw444IADDjjg1ODs/nsDU/PfG/iHd9F/b+A03f0bts8/n83Wa0ghhRRSSCGFFFJIIYUUUkghhXQcpPmO9OwmIj29I51Oc14tIIUUUkghhRRSSCGFFFJIIYUU0nGQThvSr67OA9K8viNNabmcTiGFFFJIIYUUUkghhRRSSCGFFNJxkM4a0j9++y4iXd2Rrm/X/B8hhRRSSCGFFFJIIYUUUkghhRTScZDOG9J/37yKSJd3pL/+9RdfLJeQQgoppJBCCimkkEIKKaSQQgrpOEgXd/+XiXebiHRxR/rFF4sFpJBCCimkkEIKKaSQQgoppJBCOhbSZUP628vILJjnd6SrVc7zOaSQQgoppJBCCimkkEIKKaSQQnow0nuUV1dnPz5/NOynk5vzm4vNH749e7s5udn8dPP8F/98+e7q+nGM9w//5K/Pv9+8uT6/fHOxub5LeCTil7+cfP7q1eRscpc0+fH85tvJ9eX3m8mr6SN/8vqH1ydnb99u3rx6/qzZ+9knj/yB+3VydnNz9fzZT89eTBanPf/Q+9s/lLv/oeub9xebD3ifnr15+e3l1e2ff3ax+aYH7Tbjm8s3N5/+uDl//e1Nk/H15cWr7hkf/m7+9+f/+8Mb/PvNt5uzm8nvXr6c/OHlt7/4pPSX9A+/vH55df725r+Hz/mHX746/+HnHw7/TBx2mzU5f/XZs5dNg7+4fdFn5282V3/Jy+Wzyd1b8dmzV+fXby/O3v/q/M3F7WOffn1x+fKvf/8sBrxN/fAaJjfv397++ebd+OV3Zz+cffinxT/ZrB/Orpq2TT6bvDr//u3F5uTN5sc//PD6+bP/+jOQLyaz09O7//Ho8WlyX53dnN0G/+k/nl2cfb25eParZ68235y9u7iZvL26/Ob8YvPsxYdH/vLTs1+lk9MXz344u3i3efarxfpkvbdW6xfPXjZ3zm3C7TXyxRdffvnsby86peZBUqeDpM4GSZ0PkroYJHU5SOpqkNT1IKnpdJjYYU5XGuZ4pWHOVxrmgKVhTlga5oilYc5YGuaQpWFOWR7mlOWBZtgwpywPc8qycMom1+++/771X+Nd8QnhavOqR2jH97ZfaMd3tl9ox/e1X2jHu6tfaMebq19ox3urX2jHW6tfaMc7q19o1w8GPVMHOVNdPxb0TB3kVHX9UNAzdZBz1fUjQc/UQU5W1w8EPVMHOVtdPw70TB1mXg1ytrp+FuiZWnu2fjx/c6N+DPi6eUL31I5va8/Ujm9rz9SOb2vP1I5XVs/UjldWz9SOV1bP1I5XVs/UjldWz9Sunwf6xg5zurp+IugbO8z56vqZoG/sMCes66eCvrHDnLGunwv6xg5zyrp+MugbO9AMG+aUdf1w0De21yn7c5d/4bD9d4OTzyZvNj/e/wuNu3+P8fz6h9cv7v6FxKP/5uL+XzBeb27+8fLdm1fXz+enLyYpzV9Mps1/yvNu//bjp1uM3b83ffXqi7ObzevLq/ef/3R+/eFf0O3eig7/FvM24HdXrzZXv3/X/Puyzn+w4Xjf5vjt5uz63dXmA0bzr/y2fwXqv5e9+xdJ7a3+sLk631xvcW932v6FvL24vDlp/u3Wo1te/9zrfpz0+uSud28vL85uzi/f3EI9u77ZvP306803l1ebZ92a9JvN682bV+0X9OGfPV/ctmDaNKH5l2Gp+R/bf+356L8Rvo89+cvrzc2Xb26a9+d2i2/evXl5R/r8k8l/dPj3ng3hZven//To2WjW+TeT5zffnl/f9rr5c902atbeHzq5ff++PHv57fP/C9w37R5/++8Gt7l/eXt5fd4E/vr2H3d5NferifkZqqvLH/sh3WOdv3m1aQ7up+lFzz99v76r/YPfnG8umr49376nH87J66vLd283ryZ/93eT/7L95z+d/OXbs+vtfdIcsE/2H33/s4/eviEnZ69ff9XscXKxefP65tvJP0zy5H9Mnn1+cfFs8qv2M64vzl9unn+aPvnT6Z8/efS8PXgll1eT59/dvpTTv598d7vNtqrbfZt/9t8+m6T+f0HNamq8zfvTd38++evm9nr77LMPb15d4l3q9q/9u74v9X59fbU5+2vNH/5bzz/T9/nN+7V9dZ81tW7KsG3K3WA8+cuH7/RsXt19q+f6T3fv5J/r3sr7v+i3766/fV77d3H7V/qrD3+f9Sfp4uJXXV7lSfPM2l2ub64u/7rpts+H59budPn27OX5zftuW22fXP2q7ra436o25f4iaV8rNcej9+XTrPvj3L54Jp9OUt+0PsetO+vfXtxN1U7P/9tjnyma9ctfTv713/44+T+/+7ffT/7wu9//8V/+1z9NfvO7f/qXLyb//OXvv+wW8NXtrb356az5iDa5uZxcX95+kH7z7vvbHryc3H1EvJ6cXb+8/fBy/uZ1h8T7977J2ZvMZy8mX3e/XK42N++u3kzenl1db766uDy7eX7WXPmf3P5V7v2zr+/+Wac38/GPaHvbbl/CY8F/+0/47uVH/wJ2+wXL5l+o/qd8FRQccMABBxxwwAEHHHDAAWf0OA+/4NIQXW1eQQMNNNBAAw000EADDTTQQFOmefCVwIam+YofOOCAAw444IADDjjggAMOOP+JxsM/br5/u7k6u3l3tZk8/+oTnIdH5Tz897Omcf+8uftfn3//9fnmzc2k+StrzIebV+9u3/9PJ8vTr0YiQVyNQYK4OpgE8e6np7USJlPO1JQzM+XMTTkLU87SlLMy5axNOS27gBTkanRyVTq5Op1cpU6uVidXrZOr18lV7ORqdnY1O9vualezs6vZuVezu0v7WlH1mj4hJnyH6lV8Qkx47ut1e0JMeObrlXpCTHjeBW2ekmPqcTzGBBmekmOqcjzDBMWdkmNqczzABHGdcg+a+hxPL0FHp+SY+hyPrnrJXCtG0MopOeHbI6jjlJzwuAt6OCUnPO6CAk7JCY+7onmTglyNjieYIm+TglyljoeYomSTgly9jueYIlqTbkZXs+NRpujTpCBXs+NphhRtFFI0HuZhHuZhHuZhHuZhHuZhHuZhHuZhHuZhHj6mh9+fXP6wubo6f7X57Vnzf6hKJ6dI8fdeCVL83UKK32shxUeK32Mhxf94IcX/eCHF77mQ4iPF/9mFFB8ccMABBxxwwAEHHHDAAQecMSgloYEGGmiggQYaaKCBBhpoxkPzZFSW4IADDjjggAMOOOCAAw449fv9J0jxf33+/ebN9fnlm4vN9TVK/ONS4l9e/XXy5TffnL8837x5+X4nwj+sAn/77I8e2f9/3//nD/97l779D7v/9fXlq/fN//725vuL//7//f+ZyPMF"
               },
               {
                  "name" : "annual_peak_electric_demand",
                  "units" : "kW",
                  "value" : 157.49996999999999
               },
               {
                  "name" : "first_year_capital_cost",
                  "units" : "$",
                  "value" : 0
               },
               {
                  "name" : "annual_utility_cost",
                  "units" : "$",
                  "value" : 83956.679999999993
               },
               {
                  "name" : "total_lifecycle_cost",
                  "units" : "$",
                  "value" : 1460317.8799999999
               }
            ],
            "step_warnings" : []
         }
      }
   ],
   "updated_at" : "20170710T191525Z",
   "weather_file" : "USA_CO_Denver.Intl.AP.725650_TMY3.epw"
}
