{
   "completed_at" : "20170710T193217Z",
   "completed_status" : "Success",
   "created_at" : "2017-07-10 19:30:20 +0000",
   "current_step" : 5,
   "description" : "",
   "eplusout_err" : "Program Version,EnergyPlus, Version 8.7.0-78a111df4a, YMD=2017.07.10 19:31,IDD_Version 8.7.0\n   ************* IDF Context for following error/warning message:\n   ************* Note -- lines truncated at 300 characters, if necessary...\n   *************      5 Building,\n   ************* indicated Name=NECB 2011-SmallOffice-NECB HDD Method-CAN_ON_London.716230_CWEC.epw created: 2017-07-10 19:30:26 +0000\n   ************* Only last 1 lines before error line shown.....\n   *************      6   NECB 2011-SmallOffice-NECB HDD Method-CAN_ON_London.716230_CWEC.epw created: 2017-07-10 19:30:26 +0000, !- Name\n   ** Warning ** IP: IDF line~6 Alpha Argument length exceeds maximum, will be truncated=  NECB 2011-SmallOffice-NECB HDD Method-CAN_ON_London.716230_CWEC.epw created: 2017-07-10 19:30:26 +000\n   **   ~~~   ** Will be processed as Alpha=NECB 2011-SMALLOFFICE-NECB HDD METHOD-CAN_ON_LONDON.716230_CWEC.EPW CREATED: 2017-07-10 19:30:26 +0000\n   ************* Beginning Zone Sizing Calculations\n   ** Warning ** ProcessScheduleInput: Schedule:Day:Interval=\"ECONOMIZER MAX OA FRACTION 100 PCT DEFAULT\", Blank Schedule Type Limits Name input -- will not be validated.\n   ** Warning ** ProcessScheduleInput: Schedule:Day:Interval=\"SCHEDULE DAY 1\", Blank Schedule Type Limits Name input -- will not be validated.\n   ** Warning ** ProcessScheduleInput: Schedule:Day:Interval=\"SCHEDULE DAY 10\", Blank Schedule Type Limits Name input -- will not be validated.\n   ** Warning ** ProcessScheduleInput: Schedule:Day:Interval=\"SCHEDULE DAY 11\", Blank Schedule Type Limits Name input -- will not be validated.\n   ** Warning ** ProcessScheduleInput: Schedule:Day:Interval=\"SCHEDULE DAY 12\", Blank Schedule Type Limits Name input -- will not be validated.\n   ** Warning ** ProcessScheduleInput: Schedule:Day:Interval=\"SCHEDULE DAY 13\", Blank Schedule Type Limits Name input -- will not be validated.\n   ** Warning ** ProcessScheduleInput: Schedule:Day:Interval=\"SCHEDULE DAY 14\", Blank Schedule Type Limits Name input -- will not be validated.\n   ** Warning ** ProcessScheduleInput: Schedule:Day:Interval=\"SCHEDULE DAY 15\", Blank Schedule Type Limits Name input -- will not be validated.\n   ** Warning ** ProcessScheduleInput: Schedule:Day:Interval=\"SCHEDULE DAY 16\", Blank Schedule Type Limits Name input -- will not be validated.\n   ** Warning ** ProcessScheduleInput: Schedule:Day:Interval=\"SCHEDULE DAY 17\", Blank Schedule Type Limits Name input -- will not be validated.\n   ** Warning ** ProcessScheduleInput: Schedule:Day:Interval=\"SCHEDULE DAY 18\", Blank Schedule Type Limits Name input -- will not be validated.\n   ** Warning ** ProcessScheduleInput: Schedule:Day:Interval=\"SCHEDULE DAY 19\", Blank Schedule Type Limits Name input -- will not be validated.\n   ** Warning ** ProcessScheduleInput: Schedule:Day:Interval=\"SCHEDULE DAY 2\", Blank Schedule Type Limits Name input -- will not be validated.\n   ** Warning ** ProcessScheduleInput: Schedule:Day:Interval=\"SCHEDULE DAY 5\", Blank Schedule Type Limits Name input -- will not be validated.\n   ** Warning ** ProcessScheduleInput: Schedule:Day:Interval=\"SCHEDULE DAY 6\", Blank Schedule Type Limits Name input -- will not be validated.\n   ** Warning ** ProcessScheduleInput: Schedule:Day:Interval=\"SCHEDULE DAY 7\", Blank Schedule Type Limits Name input -- will not be validated.\n   ** Warning ** ProcessScheduleInput: Schedule:Day:Interval=\"SCHEDULE DAY 8\", Blank Schedule Type Limits Name input -- will not be validated.\n   ** Warning ** ProcessScheduleInput: Schedule:Day:Interval=\"SCHEDULE DAY 9\", Blank Schedule Type Limits Name input -- will not be validated.\n   ** Warning ** ProcessScheduleInput: Schedule:Year=\"ECONOMIZER MAX OA FRACTION 100 PCT\", Blank Schedule Type Limits Name input -- will not be validated.\n   ** Warning ** ProcessScheduleInput: Schedule:Year=\"SCHEDULE RULESET 10\", Blank Schedule Type Limits Name input -- will not be validated.\n   ** Warning ** ProcessScheduleInput: Schedule:Year=\"SCHEDULE RULESET 11\", Blank Schedule Type Limits Name input -- will not be validated.\n   ** Warning ** ProcessScheduleInput: Schedule:Year=\"SCHEDULE RULESET 12\", Blank Schedule Type Limits Name input -- will not be validated.\n   ** Warning ** ProcessScheduleInput: Schedule:Year=\"SCHEDULE RULESET 13\", Blank Schedule Type Limits Name input -- will not be validated.\n   ** Warning ** ProcessScheduleInput: Schedule:Year=\"SCHEDULE RULESET 14\", Blank Schedule Type Limits Name input -- will not be validated.\n   ** Warning ** ProcessScheduleInput: Schedule:Year=\"SCHEDULE RULESET 15\", Blank Schedule Type Limits Name input -- will not be validated.\n   ** Warning ** ProcessScheduleInput: Schedule:Year=\"SCHEDULE RULESET 16\", Blank Schedule Type Limits Name input -- will not be validated.\n   ** Warning ** ProcessScheduleInput: Schedule:Year=\"SCHEDULE RULESET 17\", Blank Schedule Type Limits Name input -- will not be validated.\n   ** Warning ** ProcessScheduleInput: Schedule:Year=\"SCHEDULE RULESET 3\", Blank Schedule Type Limits Name input -- will not be validated.\n   ** Warning ** ProcessScheduleInput: Schedule:Year=\"SCHEDULE RULESET 4\", Blank Schedule Type Limits Name input -- will not be validated.\n   ** Warning ** ProcessScheduleInput: Schedule:Year=\"SCHEDULE RULESET 5\", Blank Schedule Type Limits Name input -- will not be validated.\n   ** Warning ** ProcessScheduleInput: Schedule:Year=\"SCHEDULE RULESET 6\", Blank Schedule Type Limits Name input -- will not be validated.\n   ** Warning ** ProcessScheduleInput: Schedule:Year=\"SCHEDULE RULESET 7\", Blank Schedule Type Limits Name input -- will not be validated.\n   ** Warning ** ProcessScheduleInput: Schedule:Year=\"SCHEDULE RULESET 8\", Blank Schedule Type Limits Name input -- will not be validated.\n   ** Warning ** ProcessScheduleInput: Schedule:Year=\"SCHEDULE RULESET 9\", Blank Schedule Type Limits Name input -- will not be validated.\n   ** Warning ** ProcessScheduleInput: Schedule:Constant=\"ALWAYS OFF DISCRETE\", Blank Schedule Type Limits Name input -- will not be validated.\n   ** Warning ** ProcessScheduleInput: Schedule:Constant=\"ALWAYS ON CONTINUOUS\", Blank Schedule Type Limits Name input -- will not be validated.\n   ** Warning ** CheckUsedConstructions: There are 22 nominally unused constructions in input.\n   **   ~~~   ** For explicit details on each unused construction, use Output:Diagnostics,DisplayExtraWarnings;\n   ************* Beginning System Sizing Calculations\n   ************* Beginning Plant Sizing Calculations\n   ** Warning ** GetDXCoils: Coil:Cooling:DX:SingleSpeed=\"COIL COOLING DX SINGLE SPEED 5 18KBTU/HR 14.0SEER\", invalid\n   **   ~~~   ** ...Part Load Fraction Correlation Curve Name = DXCOOL-NECB2011-REF-COOLPLFFPLR 4 has out of range value.\n   **   ~~~   ** ...Curve maximum must be <= 1.0, curve max at PLR = 0.99 is 1.015\n   **   ~~~   ** ...Setting curve maximum to 1.0 and simulation continues.\n   ** Warning ** GetDXCoils: Coil:Cooling:DX:SingleSpeed=\"COIL COOLING DX SINGLE SPEED 4 18KBTU/HR 14.0SEER\", invalid\n   **   ~~~   ** ...Part Load Fraction Correlation Curve Name = DXCOOL-NECB2011-REF-COOLPLFFPLR 3 has out of range value.\n   **   ~~~   ** ...Curve maximum must be <= 1.0, curve max at PLR = 0.99 is 1.015\n   **   ~~~   ** ...Setting curve maximum to 1.0 and simulation continues.\n   ** Warning ** GetDXCoils: Coil:Cooling:DX:SingleSpeed=\"COIL COOLING DX SINGLE SPEED 2 17KBTU/HR 14.0SEER\", invalid\n   **   ~~~   ** ...Part Load Fraction Correlation Curve Name = DXCOOL-NECB2011-REF-COOLPLFFPLR 1 has out of range value.\n   **   ~~~   ** ...Curve maximum must be <= 1.0, curve max at PLR = 0.99 is 1.015\n   **   ~~~   ** ...Setting curve maximum to 1.0 and simulation continues.\n   ** Warning ** GetDXCoils: Coil:Cooling:DX:SingleSpeed=\"COIL COOLING DX SINGLE SPEED 1 17KBTU/HR 14.0SEER\", invalid\n   **   ~~~   ** ...Part Load Fraction Correlation Curve Name = DXCOOL-NECB2011-REF-COOLPLFFPLR has out of range value.\n   **   ~~~   ** ...Curve maximum must be <= 1.0, curve max at PLR = 0.99 is 1.015\n   **   ~~~   ** ...Setting curve maximum to 1.0 and simulation continues.\n   ** Warning ** GetDXCoils: Coil:Cooling:DX:SingleSpeed=\"COIL COOLING DX SINGLE SPEED 3 18KBTU/HR 14.0SEER\", invalid\n   **   ~~~   ** ...Part Load Fraction Correlation Curve Name = DXCOOL-NECB2011-REF-COOLPLFFPLR 2 has out of range value.\n   **   ~~~   ** ...Curve maximum must be <= 1.0, curve max at PLR = 0.99 is 1.015\n   **   ~~~   ** ...Setting curve maximum to 1.0 and simulation continues.\n   ** Warning ** The Standard Ratings is calculated for Coil:Cooling:DX:SingleSpeed = COIL COOLING DX SINGLE SPEED 5 18KBTU/HR 14.0SEER but not at the AHRI test condition due to curve out of bound.\n   **   ~~~   **  Review the Standard Ratings calculations in the Engineering Reference for this coil type. Also, use Output:Diagnostics, DisplayExtraWarnings for further guidance.\n   ** Warning ** The Standard Ratings is calculated for Coil:Cooling:DX:SingleSpeed = COIL COOLING DX SINGLE SPEED 4 18KBTU/HR 14.0SEER but not at the AHRI test condition due to curve out of bound.\n   **   ~~~   **  Review the Standard Ratings calculations in the Engineering Reference for this coil type. Also, use Output:Diagnostics, DisplayExtraWarnings for further guidance.\n   ** Warning ** The Standard Ratings is calculated for Coil:Cooling:DX:SingleSpeed = COIL COOLING DX SINGLE SPEED 2 17KBTU/HR 14.0SEER but not at the AHRI test condition due to curve out of bound.\n   **   ~~~   **  Review the Standard Ratings calculations in the Engineering Reference for this coil type. Also, use Output:Diagnostics, DisplayExtraWarnings for further guidance.\n   ** Warning ** The Standard Ratings is calculated for Coil:Cooling:DX:SingleSpeed = COIL COOLING DX SINGLE SPEED 1 17KBTU/HR 14.0SEER but not at the AHRI test condition due to curve out of bound.\n   **   ~~~   **  Review the Standard Ratings calculations in the Engineering Reference for this coil type. Also, use Output:Diagnostics, DisplayExtraWarnings for further guidance.\n   ** Warning ** The Standard Ratings is calculated for Coil:Cooling:DX:SingleSpeed = COIL COOLING DX SINGLE SPEED 3 18KBTU/HR 14.0SEER but not at the AHRI test condition due to curve out of bound.\n   **   ~~~   **  Review the Standard Ratings calculations in the Engineering Reference for this coil type. Also, use Output:Diagnostics, DisplayExtraWarnings for further guidance.\n   ** Warning ** Check input. Pump nominal power or motor efficiency is set to 0, for pump=SERVICE WATER LOOP PUMP\n   ** Warning ** Output:Meter: invalid Name=\"DISTRICTCOOLING:FACILITY\" - not found.\n   ** Warning ** Output:Meter: invalid Name=\"DISTRICTHEATING:FACILITY\" - not found.\n   ** Warning ** Output:Meter:MeterFileOnly requested for \"Electricity:Facility\" (TimeStep), already on \"Output:Meter\". Will report to both eplusout.eso and eplusout.mtr\n   ************* Testing Individual Branch Integrity\n   ************* All Branches passed integrity testing\n   ************* Testing Individual Supply Air Path Integrity\n   ************* All Supply Air Paths passed integrity testing\n   ************* Testing Individual Return Air Path Integrity\n   ************* All Return Air Paths passed integrity testing\n   ************* No node connection errors were found.\n   ************* Beginning Simulation\n   ** Warning ** CalcDoe2DXCoil: Coil:Cooling:DX:SingleSpeed \"COIL COOLING DX SINGLE SPEED 4 18KBTU/HR 14.0SEER\" - Air-cooled condenser inlet dry-bulb temperature below 0 C. Outdoor dry-bulb temperature = -4.73\n   **   ~~~   **  ... Occurrence info = RUN PERIOD 1, 01/01 14:30 - 14:45\n   **   ~~~   ** ... Operation at low ambient temperatures may require special performance curves.\n   ** Warning ** CalcDoe2DXCoil: Coil:Cooling:DX:SingleSpeed \"COIL COOLING DX SINGLE SPEED 4 18KBTU/HR 14.0SEER\" - Full load outlet air dry-bulb temperature < 2C. This indicates the possibility of coil frost/freeze. Outlet temperature = -1.33 C.\n   **   ~~~   **  ...Occurrence info = RUN PERIOD 1, 01/01 14:30 - 14:45\n   **   ~~~   ** ... Possible reasons for low outlet air dry-bulb temperatures are: This DX coil\n   **   ~~~   **    1) may have a low inlet air dry-bulb temperature. Inlet air temperature = 14.204 C.\n   **   ~~~   **    2) may have a low air flow rate per watt of cooling capacity. Check inputs.\n   **   ~~~   **    3) is used as part of a HX assisted cooling coil which uses a high sensible effectiveness. Check inputs.\n   ** Warning ** CalcDoe2DXCoil: Coil:Cooling:DX:SingleSpeed \"COIL COOLING DX SINGLE SPEED 2 17KBTU/HR 14.0SEER\" - Air-cooled condenser inlet dry-bulb temperature below 0 C. Outdoor dry-bulb temperature = -7.80\n   **   ~~~   **  ... Occurrence info = RUN PERIOD 1, 01/02 06:03 - 06:05\n   **   ~~~   ** ... Operation at low ambient temperatures may require special performance curves.\n   ** Warning ** CalcDoe2DXCoil: Coil:Cooling:DX:SingleSpeed \"COIL COOLING DX SINGLE SPEED 1 17KBTU/HR 14.0SEER\" - Air-cooled condenser inlet dry-bulb temperature below 0 C. Outdoor dry-bulb temperature = -7.80\n   **   ~~~   **  ... Occurrence info = RUN PERIOD 1, 01/02 06:03 - 06:05\n   **   ~~~   ** ... Operation at low ambient temperatures may require special performance curves.\n   ** Warning ** CalcDoe2DXCoil: Coil:Cooling:DX:SingleSpeed \"COIL COOLING DX SINGLE SPEED 1 17KBTU/HR 14.0SEER\" - Full load outlet air dry-bulb temperature < 2C. This indicates the possibility of coil frost/freeze. Outlet temperature = -0.63 C.\n   **   ~~~   **  ...Occurrence info = RUN PERIOD 1, 01/02 06:03 - 06:05\n   **   ~~~   ** ... Possible reasons for low outlet air dry-bulb temperatures are: This DX coil\n   **   ~~~   **    1) may have a low inlet air dry-bulb temperature. Inlet air temperature = 14.736 C.\n   **   ~~~   **    2) may have a low air flow rate per watt of cooling capacity. Check inputs.\n   **   ~~~   **    3) is used as part of a HX assisted cooling coil which uses a high sensible effectiveness. Check inputs.\n   ** Warning ** CalcDoe2DXCoil: Coil:Cooling:DX:SingleSpeed \"COIL COOLING DX SINGLE SPEED 3 18KBTU/HR 14.0SEER\" - Air-cooled condenser inlet dry-bulb temperature below 0 C. Outdoor dry-bulb temperature = -7.80\n   **   ~~~   **  ... Occurrence info = RUN PERIOD 1, 01/02 06:03 - 06:05\n   **   ~~~   ** ... Operation at low ambient temperatures may require special performance curves.\n   ** Warning ** CalcDoe2DXCoil: Coil:Cooling:DX:SingleSpeed \"COIL COOLING DX SINGLE SPEED 5 18KBTU/HR 14.0SEER\" - Air-cooled condenser inlet dry-bulb temperature below 0 C. Outdoor dry-bulb temperature = -6.95\n   **   ~~~   **  ... Occurrence info = RUN PERIOD 1, 01/02 21:15 - 21:17\n   **   ~~~   ** ... Operation at low ambient temperatures may require special performance curves.\n   ** Warning ** CalcDoe2DXCoil: Coil:Cooling:DX:SingleSpeed \"COIL COOLING DX SINGLE SPEED 5 18KBTU/HR 14.0SEER\" - Full load outlet air dry-bulb temperature < 2C. This indicates the possibility of coil frost/freeze. Outlet temperature = -1.32 C.\n   **   ~~~   **  ...Occurrence info = RUN PERIOD 1, 01/02 21:15 - 21:17\n   **   ~~~   ** ... Possible reasons for low outlet air dry-bulb temperatures are: This DX coil\n   **   ~~~   **    1) may have a low inlet air dry-bulb temperature. Inlet air temperature = 14.101 C.\n   **   ~~~   **    2) may have a low air flow rate per watt of cooling capacity. Check inputs.\n   **   ~~~   **    3) is used as part of a HX assisted cooling coil which uses a high sensible effectiveness. Check inputs.\n   ** Warning ** CalcDoe2DXCoil: Coil:Cooling:DX:SingleSpeed \"COIL COOLING DX SINGLE SPEED 2 17KBTU/HR 14.0SEER\" - Full load outlet air dry-bulb temperature < 2C. This indicates the possibility of coil frost/freeze. Outlet temperature = 1.88 C.\n   **   ~~~   **  ...Occurrence info = RUN PERIOD 1, 01/17 21:30 - 21:35\n   **   ~~~   ** ... Possible reasons for low outlet air dry-bulb temperatures are: This DX coil\n   **   ~~~   **    1) may have a low inlet air dry-bulb temperature. Inlet air temperature = 14.960 C.\n   **   ~~~   **    2) may have a low air flow rate per watt of cooling capacity. Check inputs.\n   **   ~~~   **    3) is used as part of a HX assisted cooling coil which uses a high sensible effectiveness. Check inputs.\n   ** Warning ** CalcDoe2DXCoil: Coil:Cooling:DX:SingleSpeed \"COIL COOLING DX SINGLE SPEED 3 18KBTU/HR 14.0SEER\" - Full load outlet air dry-bulb temperature < 2C. This indicates the possibility of coil frost/freeze. Outlet temperature = 1.80 C.\n   **   ~~~   **  ...Occurrence info = RUN PERIOD 1, 01/17 21:30 - 21:35\n   **   ~~~   ** ... Possible reasons for low outlet air dry-bulb temperatures are: This DX coil\n   **   ~~~   **    1) may have a low inlet air dry-bulb temperature. Inlet air temperature = 15.340 C.\n   **   ~~~   **    2) may have a low air flow rate per watt of cooling capacity. Check inputs.\n   **   ~~~   **    3) is used as part of a HX assisted cooling coil which uses a high sensible effectiveness. Check inputs.\n   ************* Simulation Error Summary *************\n   ************* There are 9 unused schedules in input.\n   ************* There are 9 unused week schedules in input.\n   ************* There are 12 unused day schedules in input.\n   ************* Use Output:Diagnostics,DisplayUnusedSchedules; to see them.\n   *************\n   ************* ===== Recurring Error Summary =====\n   ************* The following recurring error messages occurred.\n   *************\n   *************  ** Warning ** CalcDoe2DXCoil: Coil:Cooling:DX:SingleSpeed=\"COIL COOLING DX SINGLE SPEED 4 18KBTU/HR 14.0SEER\" - Low condenser dry-bulb temperature error continues...\n   *************  **   ~~~   **   This error occurred 694 total times;\n   *************  **   ~~~   **   during Warmup 0 times;\n   *************  **   ~~~   **   during Sizing 0 times.\n   *************  **   ~~~   **   Max=-2.500000E-002 [C]  Min=-20. [C]\n   *************\n   *************  ** Warning ** CalcDoe2DXCoil: Coil:Cooling:DX:SingleSpeed=\"COIL COOLING DX SINGLE SPEED 4 18KBTU/HR 14.0SEER\" - Full load outlet temperature indicates a possibility of frost/freeze error continues. Outlet air temperature statistics follow:\n   *************  **   ~~~   **   This error occurred 564 total times;\n   *************  **   ~~~   **   during Warmup 0 times;\n   *************  **   ~~~   **   during Sizing 0 times.\n   *************  **   ~~~   **   Max=1.982031  Min=-3.22675\n   *************\n   *************  ** Warning ** CalcDoe2DXCoil: Coil:Cooling:DX:SingleSpeed=\"COIL COOLING DX SINGLE SPEED 2 17KBTU/HR 14.0SEER\" - Low condenser dry-bulb temperature error continues...\n   *************  **   ~~~   **   This error occurred 529 total times;\n   *************  **   ~~~   **   during Warmup 0 times;\n   *************  **   ~~~   **   during Sizing 0 times.\n   *************  **   ~~~   **   Max=-2.500000E-002 [C]  Min=-19.4 [C]\n   *************\n   *************  ** Warning ** CalcDoe2DXCoil: Coil:Cooling:DX:SingleSpeed=\"COIL COOLING DX SINGLE SPEED 1 17KBTU/HR 14.0SEER\" - Low condenser dry-bulb temperature error continues...\n   *************  **   ~~~   **   This error occurred 354 total times;\n   *************  **   ~~~   **   during Warmup 0 times;\n   *************  **   ~~~   **   during Sizing 0 times.\n   *************  **   ~~~   **   Max=-2.500000E-002 [C]  Min=-19.4 [C]\n   *************\n   *************  ** Warning ** CalcDoe2DXCoil: Coil:Cooling:DX:SingleSpeed=\"COIL COOLING DX SINGLE SPEED 1 17KBTU/HR 14.0SEER\" - Full load outlet temperature indicates a possibility of frost/freeze error continues. Outlet air temperature statistics follow:\n   *************  **   ~~~   **   This error occurred 386 total times;\n   *************  **   ~~~   **   during Warmup 0 times;\n   *************  **   ~~~   **   during Sizing 0 times.\n   *************  **   ~~~   **   Max=1.991609  Min=-3.05612\n   *************\n   *************  ** Warning ** CalcDoe2DXCoil: Coil:Cooling:DX:SingleSpeed=\"COIL COOLING DX SINGLE SPEED 3 18KBTU/HR 14.0SEER\" - Low condenser dry-bulb temperature error continues...\n   *************  **   ~~~   **   This error occurred 552 total times;\n   *************  **   ~~~   **   during Warmup 0 times;\n   *************  **   ~~~   **   during Sizing 0 times.\n   *************  **   ~~~   **   Max=-2.500000E-002 [C]  Min=-19.4 [C]\n   *************\n   *************  ** Warning ** CalcDoe2DXCoil: Coil:Cooling:DX:SingleSpeed=\"COIL COOLING DX SINGLE SPEED 5 18KBTU/HR 14.0SEER\" - Low condenser dry-bulb temperature error continues...\n   *************  **   ~~~   **   This error occurred 353 total times;\n   *************  **   ~~~   **   during Warmup 0 times;\n   *************  **   ~~~   **   during Sizing 0 times.\n   *************  **   ~~~   **   Max=-2.500000E-002 [C]  Min=-15.85 [C]\n   *************\n   *************  ** Warning ** CalcDoe2DXCoil: Coil:Cooling:DX:SingleSpeed=\"COIL COOLING DX SINGLE SPEED 5 18KBTU/HR 14.0SEER\" - Full load outlet temperature indicates a possibility of frost/freeze error continues. Outlet air temperature statistics follow:\n   *************  **   ~~~   **   This error occurred 446 total times;\n   *************  **   ~~~   **   during Warmup 0 times;\n   *************  **   ~~~   **   during Sizing 0 times.\n   *************  **   ~~~   **   Max=1.948384  Min=-4.231396\n   *************\n   *************  ** Warning ** CalcDoe2DXCoil: Coil:Cooling:DX:SingleSpeed=\"COIL COOLING DX SINGLE SPEED 2 17KBTU/HR 14.0SEER\" - Full load outlet temperature indicates a possibility of frost/freeze error continues. Outlet air temperature statistics follow:\n   *************  **   ~~~   **   This error occurred 3 total times;\n   *************  **   ~~~   **   during Warmup 0 times;\n   *************  **   ~~~   **   during Sizing 0 times.\n   *************  **   ~~~   **   Max=1.901695  Min=1.761395\n   *************\n   *************  ** Warning ** CalcDoe2DXCoil: Coil:Cooling:DX:SingleSpeed=\"COIL COOLING DX SINGLE SPEED 3 18KBTU/HR 14.0SEER\" - Full load outlet temperature indicates a possibility of frost/freeze error continues. Outlet air temperature statistics follow:\n   *************  **   ~~~   **   This error occurred 5 total times;\n   *************  **   ~~~   **   during Warmup 0 times;\n   *************  **   ~~~   **   during Sizing 0 times.\n   *************  **   ~~~   **   Max=1.972567  Min=1.739928\n   *************\n   *************\n   ************* ===== Final Error Summary =====\n   ************* The following error categories occurred.  Consider correcting or noting.\n   ************* Nominally Unused Constructions\n   ************* ..The nominally unused constructions warning is provided to alert you to potential conditions that can cause\n   ************* ..extra time during simulation. Each construction is calculated by the algorithm indicated in the HeatBalanceAlgorithm\n   ************* ..object. You may remove the constructions indicated (when you use the DisplayExtraWarnings option).\n   *************\n   ************* EnergyPlus Warmup Error Summary. During Warmup: 0 Warning; 0 Severe Errors.\n   ************* EnergyPlus Sizing Error Summary. During Sizing: 37 Warning; 0 Severe Errors.\n   ************* EnergyPlus Completed Successfully-- 3938 Warning; 0 Severe Errors; Elapsed Time=00hr 00min 32.82sec\n",
   "file_format_version" : "0.0.1",
   "file_paths" : [ "../weather", "../seeds", "../seed" ],
   "hash" : "B5C61D02",
   "measure_paths" : [ "../measures" ],
   "name" : "LHS Autogenerated 1033",
   "osa_id" : "4fef0e0f-5396-4c55-a6e1-2cd6803db3ab",
   "osd_id" : "d40aa88f-62ee-4f04-b670-46e476252b95",
   "run_directory" : "./run",
   "seed_file" : "seed.osm",
   "started_at" : "20170710T193023Z",
   "steps" : [
      {
         "arguments" : {
            "__SKIP__" : false,
            "building_type" : "SmallOffice",
            "climate_zone" : "NECB HDD Method",
            "epw_file" : "CAN_ON_London.716230_CWEC.epw",
            "template" : "NECB 2011"
         },
         "measure_dir_name" : "create_prototype_building",
         "name" : "create_prototype_building",
         "result" : {
            "completed_at" : "20170710T193113Z",
            "measure_class_name" : "CreatePrototypeBuilding",
            "measure_display_name" : "Create Prototype Building",
            "measure_name" : "create_prototype_building",
            "measure_taxonomy" : "Whole Building.Space Types",
            "measure_type" : "ModelMeasure",
            "measure_uid" : "ae90fsd7-a651-467a-bc8d-29d310b0f937",
            "measure_version_id" : "c6ec5c18-5595-459f-a082-09a19c8c869c",
            "measure_version_modified" : "20170519T182315Z",
            "measure_xml_checksum" : "057E8D9D",
            "started_at" : "20170710T193025Z",
            "stderr" : "",
            "stdout" : "[OpenStudio.Measure] <0> OSArgumentVector is deprecated, use OpenStudio::Measure::OSArgumentVector instead.\n[openstudio.EpwFile] <0> Successive data points (1962-Jan-31 to 1988-Feb-01, ending on line 753) are greater than 1 day apart in EPW file '/usr/local/bundle/bundler/gems/openstudio-standards-f448df66933d/openstudio-standards/data/weather/CAN_ON_London.716230_CWEC.epw'. Data will be treated as typical (TMY)\n[openstudio.setFileExtension] <0> Path p, '/usr/local/bundle/bundler/gems/openstudio-standards-f448df66933d/openstudio-standards/data/weather/CAN_ON_London.716230_CWEC.ddy', has an unexpected file extension. Was expecting 'idf'.\n[openstudio.model.YearDescription] <1> 'UseWeatherFile' is not yet a supported option for YearDescription\n[openstudio.model.YearDescription] <1> 'UseWeatherFile' is not yet a supported option for YearDescription\n[openstudio.setFileExtension] <0> Path p, '/usr/local/bundle/bundler/gems/openstudio-standards-f448df66933d/openstudio-standards/data/weather/CAN_ON_London.716230_CWEC.ddy', has an unexpected file extension. Was expecting 'idf'.\n[openstudio.model.YearDescription] <1> 'UseWeatherFile' is not yet a supported option for YearDescription\n[openstudio.model.YearDescription] <1> 'UseWeatherFile' is not yet a supported option for YearDescription\n[openstudio.EpwFile] <0> Successive data points (1962-Jan-31 to 1988-Feb-01, ending on line 753) are greater than 1 day apart in EPW file '/usr/local/bundle/bundler/gems/openstudio-standards-f448df66933d/openstudio-standards/data/weather/CAN_ON_London.716230_CWEC.epw'. Data will be treated as typical (TMY)\n[openstudio.weather.Model] <0> Could not find ground temperatures; will use generic temperatures, which will skew results.\n[openstudio.setFileExtension] <0> Path p, '/usr/local/bundle/bundler/gems/openstudio-standards-f448df66933d/openstudio-standards/data/weather/CAN_ON_London.716230_CWEC.ddy', has an unexpected file extension. Was expecting 'idf'.\n[openstudio.model.YearDescription] <1> 'UseWeatherFile' is not yet a supported option for YearDescription\n[openstudio.model.YearDescription] <1> 'UseWeatherFile' is not yet a supported option for YearDescription\n[openstudio.EpwFile] <0> Successive data points (1962-Jan-31 to 1988-Feb-01, ending on line 753) are greater than 1 day apart in EPW file '/usr/local/bundle/bundler/gems/openstudio-standards-f448df66933d/openstudio-standards/data/weather/CAN_ON_London.716230_CWEC.epw'. Data will be treated as typical (TMY)\n[openstudio.setFileExtension] <0> Path p, '/usr/local/bundle/bundler/gems/openstudio-standards-f448df66933d/openstudio-standards/data/weather/CAN_ON_London.716230_CWEC.ddy', has an unexpected file extension. Was expecting 'idf'.\n[openstudio.model.YearDescription] <1> 'UseWeatherFile' is not yet a supported option for YearDescription\n[openstudio.model.YearDescription] <1> 'UseWeatherFile' is not yet a supported option for YearDescription\n[openstudio.setFileExtension] <0> Path p, '/usr/local/bundle/bundler/gems/openstudio-standards-f448df66933d/openstudio-standards/data/weather/CAN_ON_London.716230_CWEC.ddy', has an unexpected file extension. Was expecting 'idf'.\n[openstudio.model.YearDescription] <1> 'UseWeatherFile' is not yet a supported option for YearDescription\n[openstudio.model.YearDescription] <1> 'UseWeatherFile' is not yet a supported option for YearDescription\n[openstudio.EpwFile] <0> Successive data points (1962-Jan-31 to 1988-Feb-01, ending on line 753) are greater than 1 day apart in EPW file '/usr/local/bundle/bundler/gems/openstudio-standards-f448df66933d/openstudio-standards/data/weather/CAN_ON_London.716230_CWEC.epw'. Data will be treated as typical (TMY)\n[openstudio.setFileExtension] <0> Path p, '/usr/local/bundle/bundler/gems/openstudio-standards-f448df66933d/openstudio-standards/data/weather/CAN_ON_London.716230_CWEC.ddy', has an unexpected file extension. Was expecting 'idf'.\n[openstudio.model.YearDescription] <1> 'UseWeatherFile' is not yet a supported option for YearDescription\n[openstudio.model.YearDescription] <1> 'UseWeatherFile' is not yet a supported option for YearDescription\n[openstudio.setFileExtension] <0> Path p, '/usr/local/bundle/bundler/gems/openstudio-standards-f448df66933d/openstudio-standards/data/weather/CAN_ON_London.716230_CWEC.ddy', has an unexpected file extension. Was expecting 'idf'.\n[openstudio.model.YearDescription] <1> 'UseWeatherFile' is not yet a supported option for YearDescription\n[openstudio.model.YearDescription] <1> 'UseWeatherFile' is not yet a supported option for YearDescription\n[utilities.idf.WorkspaceObject] <0> Object of type 'Schedule:Constant' and named 'Always Off Discrete', points to an object named OnOff 1 from field 1, but that object cannot be located.\n[utilities.idf.WorkspaceObject] <0> Object of type 'Schedule:Constant' and named 'Always On Continuous', points to an object named Fractional 1 from field 1, but that object cannot be located.\n[utilities.idf.WorkspaceObject] <0> Object of type 'Schedule:Constant' and named 'Always Off Discrete', points to an object named OnOff 1 from field 1, but that object cannot be located.\n[utilities.idf.WorkspaceObject] <0> Object of type 'Schedule:Constant' and named 'Always On Continuous', points to an object named Fractional 1 from field 1, but that object cannot be located.\n[openstudio.standards.Fan] <0> For Fan Constant Volume 1, there is no greater nominal HP.  Use the efficiency of the largest motor category.\n[openstudio.standards.Fan] <0> For Fan Constant Volume 2, there is no greater nominal HP.  Use the efficiency of the largest motor category.\n[openstudio.standards.Fan] <0> For Fan Constant Volume 3, there is no greater nominal HP.  Use the efficiency of the largest motor category.\n[openstudio.standards.Fan] <0> For Fan Constant Volume 4, there is no greater nominal HP.  Use the efficiency of the largest motor category.\n[openstudio.standards.Fan] <0> For Fan Constant Volume 5, there is no greater nominal HP.  Use the efficiency of the largest motor category.\n[openstudio.EpwFile] <0> Successive data points (1962-Jan-31 to 1988-Feb-01, ending on line 753) are greater than 1 day apart in EPW file '/usr/local/bundle/bundler/gems/openstudio-standards-f448df66933d/openstudio-standards/data/weather/CAN_ON_London.716230_CWEC.epw'. Data will be treated as typical (TMY)\n[openstudio.setFileExtension] <0> Path p, '/usr/local/bundle/bundler/gems/openstudio-standards-f448df66933d/openstudio-standards/data/weather/CAN_ON_London.716230_CWEC.ddy', has an unexpected file extension. Was expecting 'idf'.\n[openstudio.model.YearDescription] <1> 'UseWeatherFile' is not yet a supported option for YearDescription\n[openstudio.model.YearDescription] <1> 'UseWeatherFile' is not yet a supported option for YearDescription\n[openstudio.setFileExtension] <0> Path p, '/usr/local/bundle/bundler/gems/openstudio-standards-f448df66933d/openstudio-standards/data/weather/CAN_ON_London.716230_CWEC.ddy', has an unexpected file extension. Was expecting 'idf'.\n[openstudio.model.YearDescription] <1> 'UseWeatherFile' is not yet a supported option for YearDescription\n[openstudio.model.YearDescription] <1> 'UseWeatherFile' is not yet a supported option for YearDescription\n[openstudio.EpwFile] <0> Successive data points (1962-Jan-31 to 1988-Feb-01, ending on line 753) are greater than 1 day apart in EPW file '/usr/local/bundle/bundler/gems/openstudio-standards-f448df66933d/openstudio-standards/data/weather/CAN_ON_London.716230_CWEC.epw'. Data will be treated as typical (TMY)\n[openstudio.setFileExtension] <0> Path p, '/usr/local/bundle/bundler/gems/openstudio-standards-f448df66933d/openstudio-standards/data/weather/CAN_ON_London.716230_CWEC.ddy', has an unexpected file extension. Was expecting 'idf'.\n[openstudio.model.YearDescription] <1> 'UseWeatherFile' is not yet a supported option for YearDescription\n[openstudio.model.YearDescription] <1> 'UseWeatherFile' is not yet a supported option for YearDescription\n[openstudio.setFileExtension] <0> Path p, '/usr/local/bundle/bundler/gems/openstudio-standards-f448df66933d/openstudio-standards/data/weather/CAN_ON_London.716230_CWEC.ddy', has an unexpected file extension. Was expecting 'idf'.\n[openstudio.model.YearDescription] <1> 'UseWeatherFile' is not yet a supported option for YearDescription\n[openstudio.model.YearDescription] <1> 'UseWeatherFile' is not yet a supported option for YearDescription\n[openstudio.EpwFile] <0> Successive data points (1962-Jan-31 to 1988-Feb-01, ending on line 753) are greater than 1 day apart in EPW file '/usr/local/bundle/bundler/gems/openstudio-standards-f448df66933d/openstudio-standards/data/weather/CAN_ON_London.716230_CWEC.epw'. Data will be treated as typical (TMY)\n[openstudio.setFileExtension] <0> Path p, '/usr/local/bundle/bundler/gems/openstudio-standards-f448df66933d/openstudio-standards/data/weather/CAN_ON_London.716230_CWEC.ddy', has an unexpected file extension. Was expecting 'idf'.\n[openstudio.model.YearDescription] <1> 'UseWeatherFile' is not yet a supported option for YearDescription\n[openstudio.model.YearDescription] <1> 'UseWeatherFile' is not yet a supported option for YearDescription\n[openstudio.setFileExtension] <0> Path p, '/usr/local/bundle/bundler/gems/openstudio-standards-f448df66933d/openstudio-standards/data/weather/CAN_ON_London.716230_CWEC.ddy', has an unexpected file extension. Was expecting 'idf'.\n[openstudio.model.YearDescription] <1> 'UseWeatherFile' is not yet a supported option for YearDescription\n[openstudio.model.YearDescription] <1> 'UseWeatherFile' is not yet a supported option for YearDescription\n[openstudio.EpwFile] <0> Successive data points (1962-Jan-31 to 1988-Feb-01, ending on line 753) are greater than 1 day apart in EPW file '/usr/local/bundle/bundler/gems/openstudio-standards-f448df66933d/openstudio-standards/data/weather/CAN_ON_London.716230_CWEC.epw'. Data will be treated as typical (TMY)\n[openstudio.setFileExtension] <0> Path p, '/usr/local/bundle/bundler/gems/openstudio-standards-f448df66933d/openstudio-standards/data/weather/CAN_ON_London.716230_CWEC.ddy', has an unexpected file extension. Was expecting 'idf'.\n[openstudio.model.YearDescription] <1> 'UseWeatherFile' is not yet a supported option for YearDescription\n[openstudio.model.YearDescription] <1> 'UseWeatherFile' is not yet a supported option for YearDescription\n[openstudio.setFileExtension] <0> Path p, '/usr/local/bundle/bundler/gems/openstudio-standards-f448df66933d/openstudio-standards/data/weather/CAN_ON_London.716230_CWEC.ddy', has an unexpected file extension. Was expecting 'idf'.\n[openstudio.model.YearDescription] <1> 'UseWeatherFile' is not yet a supported option for YearDescription\n[openstudio.model.YearDescription] <1> 'UseWeatherFile' is not yet a supported option for YearDescription\n[openstudio.EpwFile] <0> Successive data points (1962-Jan-31 to 1988-Feb-01, ending on line 753) are greater than 1 day apart in EPW file '/usr/local/bundle/bundler/gems/openstudio-standards-f448df66933d/openstudio-standards/data/weather/CAN_ON_London.716230_CWEC.epw'. Data will be treated as typical (TMY)\n[openstudio.setFileExtension] <0> Path p, '/usr/local/bundle/bundler/gems/openstudio-standards-f448df66933d/openstudio-standards/data/weather/CAN_ON_London.716230_CWEC.ddy', has an unexpected file extension. Was expecting 'idf'.\n[openstudio.model.YearDescription] <1> 'UseWeatherFile' is not yet a supported option for YearDescription\n[openstudio.model.YearDescription] <1> 'UseWeatherFile' is not yet a supported option for YearDescription\n[openstudio.setFileExtension] <0> Path p, '/usr/local/bundle/bundler/gems/openstudio-standards-f448df66933d/openstudio-standards/data/weather/CAN_ON_London.716230_CWEC.ddy', has an unexpected file extension. Was expecting 'idf'.\n[openstudio.model.YearDescription] <1> 'UseWeatherFile' is not yet a supported option for YearDescription\n[openstudio.model.YearDescription] <1> 'UseWeatherFile' is not yet a supported option for YearDescription\n[openstudio.standards.Fan] <0> For Fan Constant Volume 1, there is no greater nominal HP.  Use the efficiency of the largest motor category.\n[openstudio.standards.Fan] <0> For Fan Constant Volume 2, there is no greater nominal HP.  Use the efficiency of the largest motor category.\n[openstudio.standards.Fan] <0> For Fan Constant Volume 3, there is no greater nominal HP.  Use the efficiency of the largest motor category.\n[openstudio.standards.Fan] <0> For Fan Constant Volume 4, there is no greater nominal HP.  Use the efficiency of the largest motor category.\n[openstudio.standards.Fan] <0> For Fan Constant Volume 5, there is no greater nominal HP.  Use the efficiency of the largest motor category.\n",
            "step_errors" : [],
            "step_files" : [],
            "step_info" : [
               "Started adding geometry",
               "Finished adding geometry",
               "Started adding weather file for climate zone: NECB HDD Method.",
               "Template =",
               "Setting Attic to Space Function.- undefined -",
               "Setting Core_ZN to Space Function.Office - enclosed",
               "Setting Perimeter_ZN_1 to Space Function.Office - enclosed",
               "Setting Perimeter_ZN_2 to Space Function.Office - enclosed",
               "Setting Perimeter_ZN_3 to Space Function.Office - enclosed",
               "Setting Perimeter_ZN_4 to Space Function.Office - enclosed",
               "Started applying space types (loads)",
               "Space Function - undefined - had no ventilation specification, one has been created.",
               "Space Function - undefined - had no infiltration objects, one has been created.",
               "Space Function - undefined - set infiltration to 0.0 per ft^2 exterior surface area.",
               "Space Function - undefined - set infiltration schedule to Always On.",
               "Space Function Office - enclosed had no people, one has been created.",
               "Space Function Office - enclosed set occupancy to 4.65 people/1000 ft^2.",
               "Space Function Office - enclosed had no lights, one has been created.",
               "Space Function Office - enclosed set LPD to 1.105536975 W/ft^2.",
               "Space Function Office - enclosed had no electric equipment, one has been created.",
               "Space Function Office - enclosed set electric EPD to 0.696767001 W/ft^2.",
               "Space Function Office - enclosed had no ventilation specification, one has been created.",
               "Space Function Office - enclosed set ventilation per area to 0.085 cfm/ft^2.",
               "Space Function Office - enclosed had no infiltration objects, one has been created.",
               "Space Function Office - enclosed set infiltration to 0.0 per ft^2 exterior surface area.",
               "Space Function Office - enclosed set occupancy schedule to NECB-A-Occupancy.",
               "Space Function Office - enclosed set occupant activity schedule to NECB-Activity.",
               "Space Function Office - enclosed set lighting schedule to NECB-A-Lighting.",
               "Space Function Office - enclosed set electric equipment schedule to NECB-A-Electric-Equipment.",
               "Space Function Office - enclosed set infiltration schedule to Always On.",
               "Space Function Office - enclosed set heating setpoint schedule to NECB-A-Thermostat Setpoint-Heating.",
               "Space Function Office - enclosed set cooling setpoint schedule to NECB-A-Thermostat Setpoint-Cooling.",
               "Finished applying space types (loads)",
               "For NECB 2011, no exterior wall area was found, no infiltration will be added.",
               "Started applying constructions",
               "Adding construction set: NECB 2011-NECB HDD Method-Office--is_residentialNo",
               "Adding construction Typical Insulated Exterior Mass Floor R-15.63.",
               "Adding construction Typical Insulated Exterior Mass Wall R-12.5.",
               "Adding construction Typical Insulated Metal Building Roof R-20.41.",
               "Adding construction Typical Interior Floor.",
               "Adding construction Typical Interior Wall.",
               "Adding construction Typical Interior Ceiling.",
               "Adding construction Typical Insulated Carpeted 6in Slab Floor.",
               "Adding construction U 0.55 SHGC 0.31 Dbl Ref-D Tint 6mm/6mm Air.",
               "Adding construction Typical Insulated Metal Door R-1.43.",
               "Adding construction U 0.35 SHGC 0.35 Dbl LoE (e2-.1) Tint 6mm/13mm Air.",
               "Adding construction Typical Overhead Door R-2.0.",
               "Adding construction U 0.48 SHGC 0.40 Dbl Ref-D Clr 6mm/13mm.",
               "Adding construction Typical Interior Window.",
               "Adding construction Typical Interior Door.",
               "Adding construction Typical Interior Partition.",
               "Finished applying constructions",
               "WWR NonRes = 0%; window = 0 ft2, wall = 0 ft2.",
               "WWR Res = 0%; window = 0 ft2, wall = 0 ft2.",
               "WWR Semiheated = 0%; window = 0 ft2, wall = 0 ft2.",
               "The skylight to roof ratios (SRRs) are: NonRes: 0%, Res: 0%.",
               "Started creating thermal zones",
               "Finished creating thermal zones",
               "Running simulation /mnt/openstudio/analysis_4fef0e0f-5396-4c55-a6e1-2cd6803db3ab/data_point_d40aa88f-62ee-4f04-b670-46e476252b95/run/000_create_prototype_building/output/SmallOffice-NECB 2011-NECB HDD Method-CAN_ON_London.716230_CWEC.epw/SR0.",
               "Finished run.",
               "Started Adding HVAC",
               "Finished adding HVAC",
               "Started Adding Service Water Heating",
               "Adding service water loop.",
               "Adding water heater.",
               "Template =",
               "Finished adding Service Water Heating",
               "Set sizing factors to 1.3 for heating and 1.3 for cooling.",
               "Running simulation /mnt/openstudio/analysis_4fef0e0f-5396-4c55-a6e1-2cd6803db3ab/data_point_d40aa88f-62ee-4f04-b670-46e476252b95/run/000_create_prototype_building/output/SmallOffice-NECB 2011-NECB HDD Method-CAN_ON_London.716230_CWEC.epw/SR1.",
               "Finished run.",
               "Started applying multizone vav OA sizing.",
               "Finished applying multizone vav OA sizing.",
               "Started applying prototype HVAC assumptions.",
               "For Fan Constant Volume 1: allowed_hp = 1.01HP; motor eff = 61.5%; total fan eff = 40% based on 561 cfm.",
               "For Fan Constant Volume 2: allowed_hp = 1.01HP; motor eff = 61.5%; total fan eff = 40% based on 628 cfm.",
               "For Fan Constant Volume 3: allowed_hp = 1.01HP; motor eff = 61.5%; total fan eff = 40% based on 693 cfm.",
               "For Fan Constant Volume 4: allowed_hp = 1.01HP; motor eff = 61.5%; total fan eff = 40% based on 592 cfm.",
               "For Fan Constant Volume 5: allowed_hp = 1.01HP; motor eff = 61.5%; total fan eff = 40% based on 594 cfm.",
               "Sp-Perimeter_ZN_2 Sys-3 Flr-1 Sch-A HPlcmt-east ZN NECB System 3 PSZ does not require an economizer because the total cooling capacity of 16745 Btu/hr is less than the minimum capacity of 68243 Btu/hr.",
               "Sp-Perimeter_ZN_1 Sys-3 Flr-1 Sch-A HPlcmt-south ZN NECB System 3 PSZ does not require an economizer because the total cooling capacity of 17673 Btu/hr is less than the minimum capacity of 68243 Btu/hr.",
               "Sp-Core_ZN Sys-3 Flr-1 Sch-A HPlcmt-core ZN NECB System 3 PSZ does not require an economizer because the total cooling capacity of 18171 Btu/hr is less than the minimum capacity of 68243 Btu/hr.",
               "Sp-Perimeter_ZN_3 Sys-3 Flr-1 Sch-A HPlcmt-north ZN NECB System 3 PSZ does not require an economizer because the total cooling capacity of 16510 Btu/hr is less than the minimum capacity of 68243 Btu/hr.",
               "Sp-Perimeter_ZN_4 Sys-3 Flr-1 Sch-A HPlcmt-west ZN NECB System 3 PSZ does not require an economizer because the total cooling capacity of 18470 Btu/hr is less than the minimum capacity of 68243 Btu/hr.",
               "Finished applying prototype HVAC assumptions.",
               "Started applying HVAC efficiency standards.",
               "For Sp-Core_ZN Sys-3 Flr-1 Sch-A HPlcmt-core ZN NECB System 3 PSZ, ERV not required based on 0% OA flow, design supply air flow of 594cfm, and climate zone NECB HDD Method.",
               "For Sp-Core_ZN Sys-3 Flr-1 Sch-A HPlcmt-core ZN NECB System 3 PSZ, ERV not required based on exhaust heat content.",
               "For NECB 2011 NECB HDD Method:  Sp-Core_ZN Sys-3 Flr-1 Sch-A HPlcmt-core ZN NECB System 3 PSZ: DCV is not required for any system.",
               "For Sp-Core_ZN Sys-3 Flr-1 Sch-A HPlcmt-core ZN NECB System 3 PSZ: Unoccupied fan shutoff not required because system fan HP of 0.6 HP is less than the minimum threshold of 0.75 HP.",
               "For Sp-Core_ZN Sys-3 Flr-1 Sch-A HPlcmt-core ZN NECB System 3 PSZ: Setting motorized OA damper schedule to Always On Discrete.",
               "For Sp-Perimeter_ZN_1 Sys-3 Flr-1 Sch-A HPlcmt-south ZN NECB System 3 PSZ, ERV not required based on 0% OA flow, design supply air flow of 592cfm, and climate zone NECB HDD Method.",
               "For Sp-Perimeter_ZN_1 Sys-3 Flr-1 Sch-A HPlcmt-south ZN NECB System 3 PSZ, ERV not required based on exhaust heat content.",
               "For NECB 2011 NECB HDD Method:  Sp-Perimeter_ZN_1 Sys-3 Flr-1 Sch-A HPlcmt-south ZN NECB System 3 PSZ: DCV is not required for any system.",
               "For Sp-Perimeter_ZN_1 Sys-3 Flr-1 Sch-A HPlcmt-south ZN NECB System 3 PSZ: Unoccupied fan shutoff not required because system fan HP of 0.6 HP is less than the minimum threshold of 0.75 HP.",
               "For Sp-Perimeter_ZN_1 Sys-3 Flr-1 Sch-A HPlcmt-south ZN NECB System 3 PSZ: Setting motorized OA damper schedule to Always On Discrete.",
               "For Sp-Perimeter_ZN_2 Sys-3 Flr-1 Sch-A HPlcmt-east ZN NECB System 3 PSZ, ERV not required based on 0% OA flow, design supply air flow of 628cfm, and climate zone NECB HDD Method.",
               "For Sp-Perimeter_ZN_2 Sys-3 Flr-1 Sch-A HPlcmt-east ZN NECB System 3 PSZ, ERV not required based on exhaust heat content.",
               "For NECB 2011 NECB HDD Method:  Sp-Perimeter_ZN_2 Sys-3 Flr-1 Sch-A HPlcmt-east ZN NECB System 3 PSZ: DCV is not required for any system.",
               "For Sp-Perimeter_ZN_2 Sys-3 Flr-1 Sch-A HPlcmt-east ZN NECB System 3 PSZ: Unoccupied fan shutoff not required because system fan HP of 0.64 HP is less than the minimum threshold of 0.75 HP.",
               "For Sp-Perimeter_ZN_2 Sys-3 Flr-1 Sch-A HPlcmt-east ZN NECB System 3 PSZ: Setting motorized OA damper schedule to Always On Discrete.",
               "For Sp-Perimeter_ZN_3 Sys-3 Flr-1 Sch-A HPlcmt-north ZN NECB System 3 PSZ, ERV not required based on 0% OA flow, design supply air flow of 561cfm, and climate zone NECB HDD Method.",
               "For Sp-Perimeter_ZN_3 Sys-3 Flr-1 Sch-A HPlcmt-north ZN NECB System 3 PSZ, ERV not required based on exhaust heat content.",
               "For NECB 2011 NECB HDD Method:  Sp-Perimeter_ZN_3 Sys-3 Flr-1 Sch-A HPlcmt-north ZN NECB System 3 PSZ: DCV is not required for any system.",
               "For Sp-Perimeter_ZN_3 Sys-3 Flr-1 Sch-A HPlcmt-north ZN NECB System 3 PSZ: Unoccupied fan shutoff not required because system fan HP of 0.57 HP is less than the minimum threshold of 0.75 HP.",
               "For Sp-Perimeter_ZN_3 Sys-3 Flr-1 Sch-A HPlcmt-north ZN NECB System 3 PSZ: Setting motorized OA damper schedule to Always On Discrete.",
               "For Sp-Perimeter_ZN_4 Sys-3 Flr-1 Sch-A HPlcmt-west ZN NECB System 3 PSZ, ERV not required based on 0% OA flow, design supply air flow of 693cfm, and climate zone NECB HDD Method.",
               "For Sp-Perimeter_ZN_4 Sys-3 Flr-1 Sch-A HPlcmt-west ZN NECB System 3 PSZ, ERV not required based on exhaust heat content.",
               "For NECB 2011 NECB HDD Method:  Sp-Perimeter_ZN_4 Sys-3 Flr-1 Sch-A HPlcmt-west ZN NECB System 3 PSZ: DCV is not required for any system.",
               "For Sp-Perimeter_ZN_4 Sys-3 Flr-1 Sch-A HPlcmt-west ZN NECB System 3 PSZ: Unoccupied fan shutoff not required because system fan HP of 0.7 HP is less than the minimum threshold of 0.75 HP.",
               "For Sp-Perimeter_ZN_4 Sys-3 Flr-1 Sch-A HPlcmt-west ZN NECB System 3 PSZ: Setting motorized OA damper schedule to Always On Discrete.",
               "For Fan Constant Volume 1: motor nameplate = 0.34956589570725305HP, motor eff = 61.5%.",
               "For Fan Constant Volume 2: motor nameplate = 0.39128553942555255HP, motor eff = 61.5%.",
               "For Fan Constant Volume 3: motor nameplate = 0.4316026970312684HP, motor eff = 61.5%.",
               "For Fan Constant Volume 4: motor nameplate = 0.3687286343381555HP, motor eff = 61.5%.",
               "For Fan Constant Volume 5: motor nameplate = 0.3698151860396693HP, motor eff = 61.5%.",
               "For Service Water Loop Pump: brake hp = 0.0HP, motor nameplate = 0.1HP, motor eff = 70.0%.",
               "For Pump Variable Speed 1: brake hp = 0.1HP, motor nameplate = 1.0HP, motor eff = 85.5%.",
               "For NECB 2011: Coil Cooling DX Single Speed 1: AirCooled All Other Single Package Capacity = 17kBtu/hr; SEER = 14.0",
               "For NECB 2011: Coil Cooling DX Single Speed 2: AirCooled All Other Single Package Capacity = 17kBtu/hr; SEER = 14.0",
               "For NECB 2011: Coil Cooling DX Single Speed 3: AirCooled All Other Single Package Capacity = 18kBtu/hr; SEER = 14.0",
               "For NECB 2011: Coil Cooling DX Single Speed 4: AirCooled All Other Single Package Capacity = 18kBtu/hr; SEER = 14.0",
               "For NECB 2011: Coil Cooling DX Single Speed 5: AirCooled All Other Single Package Capacity = 18kBtu/hr; SEER = 14.0",
               "For NECB 2011: Primary Boiler: Gas Hot Water Capacity = 77kBtu/hr; AFUE = 0.85",
               "For NECB 2011: Secondary Boiler: Gas Hot Water Capacity = 0kBtu/hr; AFUE = 0.85",
               "For NECB 2011: 40.0gal NaturalGas Water Heater - 40kBtu/hr 0.82 Therm Eff; thermal efficiency = 0.82, skin-loss UA = 6Btu/hr",
               "Finished applying HVAC efficiency standards.",
               "Started adding daylighting controls.",
               "For Attic, daylighting control not applicable because no exterior fenestration is present.",
               "For Core_ZN, daylighting control not applicable because no exterior fenestration is present.",
               "Finished adding daylighting controls.",
               "Total Time = 48sec."
            ],
            "step_result" : "Success",
            "step_values" : [
               {
                  "name" : "building_type",
                  "value" : "SmallOffice"
               },
               {
                  "name" : "template",
                  "value" : "NECB 2011"
               },
               {
                  "name" : "climate_zone",
                  "value" : "NECB HDD Method"
               },
               {
                  "name" : "epw_file",
                  "value" : "CAN_ON_London.716230_CWEC.epw"
               }
            ],
            "step_warnings" : [
               "[openstudio.EpwFile] Successive data points (1962-Jan-31 to 1988-Feb-01, ending on line 753) are greater than 1 day apart in EPW file '/usr/local/bundle/bundler/gems/openstudio-standards-f448df66933d/openstudio-standards/data/weather/CAN_ON_London.716230_CWEC.epw'. Data will be treated as typical (TMY)",
               "[openstudio.EpwFile] Successive data points (1962-Jan-31 to 1988-Feb-01, ending on line 753) are greater than 1 day apart in EPW file '/usr/local/bundle/bundler/gems/openstudio-standards-f448df66933d/openstudio-standards/data/weather/CAN_ON_London.716230_CWEC.epw'. Data will be treated as typical (TMY)",
               "[openstudio.weather.Model] Could not find ground temperatures; will use generic temperatures, which will skew results.",
               "[openstudio.EpwFile] Successive data points (1962-Jan-31 to 1988-Feb-01, ending on line 753) are greater than 1 day apart in EPW file '/usr/local/bundle/bundler/gems/openstudio-standards-f448df66933d/openstudio-standards/data/weather/CAN_ON_London.716230_CWEC.epw'. Data will be treated as typical (TMY)",
               "[openstudio.EpwFile] Successive data points (1962-Jan-31 to 1988-Feb-01, ending on line 753) are greater than 1 day apart in EPW file '/usr/local/bundle/bundler/gems/openstudio-standards-f448df66933d/openstudio-standards/data/weather/CAN_ON_London.716230_CWEC.epw'. Data will be treated as typical (TMY)",
               "[openstudio.standards.Fan] For Fan Constant Volume 1, there is no greater nominal HP.  Use the efficiency of the largest motor category.",
               "[openstudio.standards.Fan] For Fan Constant Volume 2, there is no greater nominal HP.  Use the efficiency of the largest motor category.",
               "[openstudio.standards.Fan] For Fan Constant Volume 3, there is no greater nominal HP.  Use the efficiency of the largest motor category.",
               "[openstudio.standards.Fan] For Fan Constant Volume 4, there is no greater nominal HP.  Use the efficiency of the largest motor category.",
               "[openstudio.standards.Fan] For Fan Constant Volume 5, there is no greater nominal HP.  Use the efficiency of the largest motor category.",
               "[openstudio.EpwFile] Successive data points (1962-Jan-31 to 1988-Feb-01, ending on line 753) are greater than 1 day apart in EPW file '/usr/local/bundle/bundler/gems/openstudio-standards-f448df66933d/openstudio-standards/data/weather/CAN_ON_London.716230_CWEC.epw'. Data will be treated as typical (TMY)",
               "[openstudio.EpwFile] Successive data points (1962-Jan-31 to 1988-Feb-01, ending on line 753) are greater than 1 day apart in EPW file '/usr/local/bundle/bundler/gems/openstudio-standards-f448df66933d/openstudio-standards/data/weather/CAN_ON_London.716230_CWEC.epw'. Data will be treated as typical (TMY)",
               "[openstudio.EpwFile] Successive data points (1962-Jan-31 to 1988-Feb-01, ending on line 753) are greater than 1 day apart in EPW file '/usr/local/bundle/bundler/gems/openstudio-standards-f448df66933d/openstudio-standards/data/weather/CAN_ON_London.716230_CWEC.epw'. Data will be treated as typical (TMY)",
               "[openstudio.EpwFile] Successive data points (1962-Jan-31 to 1988-Feb-01, ending on line 753) are greater than 1 day apart in EPW file '/usr/local/bundle/bundler/gems/openstudio-standards-f448df66933d/openstudio-standards/data/weather/CAN_ON_London.716230_CWEC.epw'. Data will be treated as typical (TMY)",
               "[openstudio.EpwFile] Successive data points (1962-Jan-31 to 1988-Feb-01, ending on line 753) are greater than 1 day apart in EPW file '/usr/local/bundle/bundler/gems/openstudio-standards-f448df66933d/openstudio-standards/data/weather/CAN_ON_London.716230_CWEC.epw'. Data will be treated as typical (TMY)",
               "[openstudio.standards.Fan] For Fan Constant Volume 1, there is no greater nominal HP.  Use the efficiency of the largest motor category.",
               "[openstudio.standards.Fan] For Fan Constant Volume 2, there is no greater nominal HP.  Use the efficiency of the largest motor category.",
               "[openstudio.standards.Fan] For Fan Constant Volume 3, there is no greater nominal HP.  Use the efficiency of the largest motor category.",
               "[openstudio.standards.Fan] For Fan Constant Volume 4, there is no greater nominal HP.  Use the efficiency of the largest motor category.",
               "[openstudio.standards.Fan] For Fan Constant Volume 5, there is no greater nominal HP.  Use the efficiency of the largest motor category."
            ]
         }
      },
      {
         "arguments" : {
            "__SKIP__" : false
         },
         "measure_dir_name" : "view_model",
         "name" : "view_model",
         "result" : {
            "completed_at" : "20170710T193114Z",
            "measure_class_name" : "ViewModel",
            "measure_display_name" : "ViewModel",
            "measure_name" : "view_model",
            "measure_taxonomy" : "Reporting.QAQC",
            "measure_type" : "ModelMeasure",
            "measure_uid" : "f4669f10-fda5-489d-8e1c-7ca3c2d40378",
            "measure_version_id" : "f4975c5f-7c25-42a2-927b-02d99b4427ef",
            "measure_version_modified" : "20170526T150340Z",
            "measure_xml_checksum" : "1E1F8B97",
            "started_at" : "20170710T193113Z",
            "stderr" : "",
            "stdout" : "[OpenStudio.Measure] <0> OSArgumentVector is deprecated, use OpenStudio::Measure::OSArgumentVector instead.\n",
            "step_errors" : [],
            "step_files" : [
               "/mnt/openstudio/analysis_4fef0e0f-5396-4c55-a6e1-2cd6803db3ab/data_point_d40aa88f-62ee-4f04-b670-46e476252b95/run/001_view_model/report.html",
               "/mnt/openstudio/analysis_4fef0e0f-5396-4c55-a6e1-2cd6803db3ab/data_point_d40aa88f-62ee-4f04-b670-46e476252b95/run/001_view_model/report.json"
            ],
            "step_final_condition" : "Report written to <a href='file:////mnt/openstudio/analysis_4fef0e0f-5396-4c55-a6e1-2cd6803db3ab/data_point_d40aa88f-62ee-4f04-b670-46e476252b95/run/001_view_model/report.html'>report.html</a>.",
            "step_info" : [ "No changes made to the model." ],
            "step_result" : "NA",
            "step_values" : [
               {
                  "name" : "view_model_html_zip",
[...]
5qJ/134vZHzb8Jm6It6M8FjOe4Z5Mg8iTgr8nHOq1ZFAnzCKswuDGjtKDl+QMh42GTtwzvXpTLojdeeGIs/a0579NZnAzDYDoRA/bjj+wf889v22cjN5qv35MBtrFce/dobdIhbXc4fCVttMfCH8Yj9pI57F+scTQeN9jB6hXR2OuL5ibf+NT5vJEbbw9aEoSseZk0pfMTu0zMzF11bld+9s9kxDF/QLJIN57jfbr83P4i7tjh4eGs84ohpqjzx35p2tRFOQ+F+6XIzV8N7zG9XvbXvHWH0q2lM8w9JV2I2j6bHT0gBsdyiWv0Ke3Jz8W6cvGgJ9No1Cz6LJJHejB7nsUjaTw+0GllW15Z1EoUh8EXoWdndm1RS8HE7XvxnZ6p+cWFW5WaWJgqirIYSFaHlSLhYTz4yLII59WBh20ybopmEm76XL+20qyqdf3XvDmFLFtb7I8/P7L/vP/zAzt9/+Hj7+9+Y2/e//b7MXt98uFED+BVMmqLW1dO0VgcsCgIY+ZPrxI/6LN0SXbE3KifTF48f6iBuOh7ibOUmd0WO9cfXEIRT0OfTdwwEq/GgRs3XTnkbySPcumz8/Qzrc7Mn6ItmZ03IQ/46xMcEfONznZ69stMRftJTqwBHdABHdABHdABHdABHdABHdBZezoPz4WQjEIxABuwARuwARuwARuwARuwARuwAZtsNg9OJpJs5LlDoAM6oAM6oAM6oAM6oAM6oAM6oFOEjv4pZukvbLMzysAUTMEUTMEUTMEUTMEUTMEUTMEUTMF0PZjmHq+ZMp0dngmmYAqmYAqmYAqmYAqmYAqmYAqmYAqm68HU6IzjlPXsBGOwBmuwBmuwBmuwBmuwBmuwBmuwBmuwBusnZL2gNQjdm2Yu2G079uKxOB25E9GOxW3cfPE6mIZRPo27h3f+6l0JP/ICfyyiFCEHYmuLHQ0GzGUpErvx4hGLgivBBt2cO6PrYdudTORxIg1pu7GRc8OitN04DpuN20aL7XQMb7pryENLtG+K4jt56oqkt+n6/VEQNu6POjHEuAj8ePNGeMNRLDHOg/FAH2P2bN6dHP+yebT5vt+fThI2dy82sp7Oy62oH3qT+GflNS+3Bt7149XKe9RgCRbzBoeNvnTd46S1rueL8IzvN1jaBYeNgRdNxu7dgefLs282z8dB/8tPDTW/BHTWBBbfTZL7ZS9sXbrX7uzTzDtlSQ/kuR6yw8W5O764Ob0eNhs/POTYYtvyGJvkj9yoWTq85dNf8xN5DhrfyPY1WrOas9vGAW93Wo1UQL5x0Gl3eq1GX440yU1zYb/G15YWkEMF1KUC2qYC6lEB7VAB7VIB7a0A8cI4+ys4xfnwDhXQqmPvFwdyqIC6VEDbVEA9KqAdKqBVx94tDrRH5Uernt0tPj6uerZTHIhTATlUQGRDtmM2Zj9UT9JLbaEYGOCoM5sZjrqXzHDUfWSGo05rZjjqrGaGo05qZjjKnGYGo0xpZjDqjGaIo0xohjjKfGaIo0xnhjjKbGaIo0xmhjjKXGaIo0xlhjjKTGaIo0xkhqOhMo8Z4ijTmCGOMosZ4lANzxk57AHQA1kKvfwlhSsMgNQJzBBI3UWGQOouMgRS5zBDIHUSMwRSZzFDIGUaM8RR5jFDHHUiMwVSZjJTIGUqMwVS5jJTIGUyMwVSZjNTIGU6MwVS5jNTIGVCMwVSZjTT8VGZ0kyBlDnNFEiZ1EyByIbsjLT2AEl/Z6bmq8jZ3k0CGxlvKclsZHwbJrOR8T2ZzEbGa08yGxlvRMlsZLwsJbOxV4GN/QpsfJPkSzJSRaTzKkKdVxHrvIpg51VEO68i3HkV8c6rCHheRcQ7VUS8U0luryLis9510xkpGPG5G2M0p1uzrTMENjKeCJmNjAdCZiPjeZDZyBiAyWxkjL9kNjKGXzIbGaMvmY2MwZfMRtZ0i85IFZGeNd2iM1JFrGdNt+iMVBHtWdMtOiNVxHvWdIvOSBURnzXdojNSSW6vIuKzplt0RgpGvNEaXM2p12yVLrG9jCdVir2Mh1aKvYznV4q9jMG7FHsZ43gp9jKG9FLsqVchlmJOvVixFHMZaxrLsade+liOPfUKyXLsqRdSlmNPvd6yHHvqZZnl2FOv3izHnnqRZzn21GtBy7GnXjJaTnZXrywtx556AWo59tTrVMuxV/X0JWv+uTD4WWfnx3xvFjtkvrhZbCxJ95M0o+thK90ZkruFZLHBKxLxL8HUH0TNXqfFOO+1WFf+zenpbUO5TWjc72EbDI7dWAyD8O7o1otmG6TuO0BjF1kC8D4ciPDDVO5X0r5R8rhb5fFWuNE0FDMacsvVvONL3s2HalSjGtWoRjWqUY1qVKMa1ahGNapRjWpUoxrVqEY1qlGNalSjGtWoRjWqUY1qVK9x9V07uBZh6A3EW1cuDOLtjuV6m1RAd3Vpz6kIPRHNlwc1WosFUJNxELelqm/uEp/osXVG+SuDonYqnDEJxm7sBX5CqhHFYrJ5Li6CUDT0Vm69EUPhD1YbNPusudNpsa5ceSVVgLn8Yy7znKuAvYBtnw1FfOLHsn8SExdTv58ybW6wv3IgFgzF/d2fcteiyeJdsGY88qJ2lD4VPUOyLN3UTvrvxO2Pmn8TNkVb0J+LIs9xzyZB5EnAX5OPdVqzKBLmEVZhcGNGaUHL8wdCxsMmbxnevSiXRW+88MRY+ltz3qezOBmGwXQiBuzHH9k/5p/fts9GbjRfvycDbGO59u7R2qRD2u5w+EraaI+FP4xH7CVz2L9Y42g8brCD1SuisdcXzU2+8anzeSM33h60JAhZ8zJpSucndpmYmbvq3K787J/JiGP+gGSRbjzH+3T5uf1F3LHDw8NZ5xVDTFHnj/3StKmLch4K90uRm78a3mN6veyveesOpVtLZ5h7SroQtX02O89ADI7lEtfoU9qTn4t15eJBT6bRqFn0WSSP9GD2PItH0nh8oNPKtryyqJUoDoMvQs/O7NqiloKJ2/fiOz1T84sLtyo1sTBVFGUxkKwOK0XCw3jwkWURzqsDD9tk3BTNJNz0uX5tpVlV6/qveXMKWba22B9/fmT/ef/nB3b6/sPH39/9xt68/+33Y/b65MOJHsCrZNQWt66corE4YFEQxsyfXiV+0GfpkuyIuVE/mbx4/lADcdH3EmcpM7stdq4/uIQinoY+m7hhJF6NAzduunLI30ge5dJn5+lnWp2ZP0VbMjtvQh7w1yc4d+Ybze70QJmZIPeTHIMDOqADOqADOqADOqADOqADOqCz9nQeHi0hGYViADZgAzZgAzZgAzZgAzZgAzZgAzbZbB6caSTZyAOLQAd0QAd0QAd0QAd0QAd0QAd0QKcIHf1zztJf2GaHmIEpmIIpmIIpmIIpmIIpmIIpmIIpmILpejDNPWgzZTo7RRNMwRRMwRRMwRRMwRRMwRRMwRRMwRRM14Op0SHHKevZCcZgDdZgDdZgDdZgDdZgDdZgDdZgDdZgDdZPyHpBaxC6N81csNt27MVjcTpyJ6Idi9u4+eJ1MA2jfBp3D+/81bsSfuQF/lhEKUIOxNYWOxoMmMtSJHbjxSMWBVeCDbo5d0bXw7Y7mcjjRBrSdmMj54ZFabtxHDYbt40W2+kY3nTXkIeWaN8UxXfy1BVJb9P1+6MgbNwfdWKIcRH48eaN8IajWGKcB+OBPsbs2bw7Of5l82jzVITXXl+wf7tyu81r4caeP3yxkfWkXm5F/dCbxD8rr3m5NfCuH69W3qMGS7CYNzhs9KUbHyctdz1fhGdOp8HS7jhsDLxoMnbvDjxfnoOzeT4O+l9+aqj5JaCzJrD4bpLcL3tk69K9dmefZt4pS3o4z/WQHS7O4PHFzen1sNn44SHHFtuWR9okf+RG0NJBLp/+mp/Oc9D4RsKv0ZrVnN02Dni702qkYvKNg/3t9v5y6bYafTkEJQhzxb/G15YWqlMKarcU1O1SUHuloO6Ugrq7hLrba3Ma1L1SUPdLQeWdcmB5ObBOObDdcmC3y4HtlQO7Uw5sOTHGywkyXk6UOeVEmVNOlDnlJDGnnCzmWKSxh4JUBWYIoRgYgGr2rRmoZs+agWr2qxmo5uzADFRzcmAGqjlumYFqjlpmoJpjlhmo7sTAEFVzxDJE1ZwWGKJqzgoMUTUnBYaomnMCQ1TNKYEhaimRpTshMEQtJbZ0pwOGqKXElu5kwBC1lIylOxV4gPpAMKXANEDqqxiganarIapmtxqianarIarmVMAQVXMuYIiqOWQZomoOWYaomkOWIarufMAUVnPQMoXVnBGYwmpOCUxhNecEprCakwJTWM1ZgSlsOTGmOy8whS0nynRnBqaw5USZ7tzAFLacLKY7O3gAq7/1usjvC7Od2gQGdd/akBnUfZ9DZlD3TQ+ZQd3fMsgM6v7MQWZwt2qDe1Ub3K/a4MpMqRqLlY81vPLBhlc+2vDKhxte+XjDKx9weOUjDq98yOGVjzlO5WOOU/38pvIxR/sXKzqLFGNO7o7BItPU2QZDAoO6T5HMoO5DJDOo+wzJDOqmDTKDulmDzKBu0iAzqJszyAzqpgwyg9rTVDqLlY812tNUOouVjzba01Q6i5WPN9rTVDqLlY842tNUOouVjzna01Q6i9XPbyofc7SnqXQWKcYco00dRaassz0gxMZ1n24pxnUfdCnGdZ95KcZ1U04pxnWzTynGddfPlmJcd5VtKcZ11+KWYlx7YXw51nVX9pZjXXeZfTnWdVfjl2Ndd9F+OdZ11/aXY113C0A51p90pNPeUFCO9Scd67S3J5Rj/UnHOu3pejnWn3RGpz2NX1j/rLMLc75nmh0yX9wsNnmmezub0fWwle7SzN3Oudh4HYn4l2DqD6Jmr9NinPdarCv/5vT0toTeJjTu95YPBsduLIZBeHd060Wzjcv3vaGxuzsBeB8ORPhhKvcRa98oedyt8ngr3GgaihkNuRV6/hRs96unm2tXTZ2K0BPRnG5iaf5AJuMgbssdv7kmo8fanc80aqeLcSbB2I29wE9INaJYTDbPxUUQioaeJ70RQ+EPVhs0+6y5k3hBV3qC3CHM5R/z7eC5O+UXsO2zoYhP/Fj2T2LiYur3U6bNDfaXxn5wyVDc3/0pNzZk8S5YMx55UeLX8j49Q7Is3dRO+u/E7Y+afxM2RVvQn2+YnuOeTYLIk4C/Jh/rtGZRJMwjrMLgxozSgpbnD4QM3E3eMrx7US6L3njhibH0t+a8T2dxMgyD6UQM2I8/sn/MP79tn43caD6eyADbWK69e7Q26ZC2Oxy+kjbaY+EP4xF7yRz2L9Y4Go8b7GD1imjs9UVzk2986nzeyI23By0JQta8TJrS+YldJmbmrjq3Kz/75yHj5g9IFunGc7xPl5/bX0QyvB0ezjqvGGKKOn/sl6ZNXZTzULhfitz81fAe0+tlf81bdyjdWjrD3FPSxNg+m+meiMGxTLnRp7QnPxfrysWDnkyjUbPos0ge6cHseRaPpPH4QKeVbXllUStRHAZfhJ6d2bVFLQUTt5/MtvRMzS8u3KrUxMJUUZTFQLI6rBQJD+PBR5ZFOK8OPMlclZuimYSbPtevrTSral3/NW9OIcvWFvvjz4/sP+///MBO33/4+Pu739ib97/9fsxen3w40QN4lYza4taVUzQWBywKkom0P71K/KDP0ilixNyon0xePH+ogbjoe4mzlJndFjvXH1xCEU9Dn03cMBKvxoEbN1055G8kj3Lps/P0M63OzJ+iLZmdNyEP+OsT6FN9sys9FZ6a7TJ/Erks0AEd0AEd0AEd0AEd0AEd0AGdtafzUPVDMgrFAGzABmzABmzABmzABmzABmzABmyy2TzQSZJspO4R6IAO6IAO6IAO6IAO6IAO6IAO6BSho68Blv7CNtP0AlMwBVMwBVMwBVMwBVMwBVMwBVMwBdP1YJorppgynYkjgimYgimYgimYgimYgimYgimYgimYgul6MDVSYE1ZzxRVwRqswRqswRqswRqswRqswRqswRqswRqsn5D1gtYgdG+auWC37diLx+J05E5EOxa3cfPF62AaRvk07h7e+VFcTUToxtNQsOarDYmRA7K1xY4GA+ayFIvdePGIRcGVYINuzp3R9bDtTibyQJGGtN7YyLlhUdpuHIezI2R2OoY3yQNfHP2bovhOnrsi6W26fn8UhI37w04MMS4CP968Ed5wFEuM82A80MeYPZ13J8e/bB5tfhyJ8CqIYjdmpyKeBF4CfBwEY88fvtjIel4vt6J+6E3in5XXvNwaeNePVyvvUYMlWMwbHDb60p2Pk/a7ni/CM4c3WNoph42BF03G7t2B58vzcDbPx0H/y08NNb8EdNYEFt9Nkvtlv2xdutfu7NPMO2VJD+m5HrLDxVk8vrg5vR42Gz885Nhi2/Jom+SP3EhaOtDl09+nRH0j5ac6R3Vnu91Vnf40U/5bOXsqA9UpBbVbCup2Kai9UlB3SkFdPnNvZ1d9ApgZ6spZerzdW0bdLoy6Xwrq6kGfdLC8HFinHNhuObDb5cD2yoHdKQd2txzYcoKMlxNlTjlR5pQTZU45ScwpJ4s5FmnsoTBVgRlCKAYGoJp9awaq2bNmoJr9agaqOTswA9WcHJiBas4NzEA1Ry0zUM0xywxUd2JgiKo5Yhmiak4LDFE1ZwWGqJqTAkNUzTmBIarmlMAQVXNGYIhaSmjpzgcMc0ApsaU7GzBELSVh6c4FDFGLpqwHwikFpgFSZ8UAVbNbDVE1u9UQVbNbDVE1pwKGqJpzAUNUzcmAIarmkGWIqjlkGaLqzgdMYTUHLVNYzRmBKazmlMAUVnNOYAqrOSkwhdWcFZjCak4LTGHLCTLdiYFpVignynSnBqaw5SQx3cmBKWzRNKa/BbvI7wuzHdsEBnXf2pAZ1H2fQ2ZQ900PmUHd3zLIDOr+zEFmcLdqg3tVG9yv2uDKTKkai5WPNbzywYZXPtrwyocbXvl4wysfcHjlIw6vfMjhlY85TuVjjlP9/KbyMUf7Fys6ixRjTu7OwSLT1NlGQwKDuk+RzKDuQyQzqPsMyQzqpg0yg7pZg8ygbtIgM6ibM8gM6qYMMoPa01Q6i5WPNdrTVDqLlY822tNUOouVjzfa01Q6i5WPONrTVDqLlY852tNUOovVz28qH3O0p6l0FinGHKPNHUWmrLO9IMTGdZ9uKcZ1H3QpxnWfeSnGdVNOKcZ1s08pxnXXqJdiXHeVbSnGddfilmJce2F8OdZ1V/aWY113mX051nVX45djXXfRfjnWddf2l2NddwtAOdZ1dwqUY/1JhzrtfQflzGmedKzT3sVQjvUnndBpT93LsW46pfusswtzvneaHTJf3Cw2eaZ7O5vR9bCV7tLM3c652IAdifiXYOoPomav02Kc91qsK//m9PS2hN4mNO73mA8Gx24shkF4d3TrRbPty/e9obHLOwF4Hw5E+GEqdxNr3yh53K3yeCvcaBqKGQ25IXr+FGz3raeba1dNnYrQE9GcbmJp/kAm4yBuyx2/uSajx9qdzzRqp4txJsHYjb3AT0g1olhMNs/FRRCKhp4nvRFD4Q9WGzT7rLmTeEFXeoLcIczlH/NN4bn75Rew7bOhiE/8WPZPYuJi6vdTps0N9pfGrnDJUNzf/Sk3NmTxLlgzHnlR4tfyPj1Dsizd1E7678Ttj5p/EzZFW9Cfb5ie455NgsiTgL8mH+u0ZlEkzCOswuDGjNKClucPhAzcTd4yvHtRLoveeOGJsfS35rxPZ3EyDIPpRAzYjz+yf8w/v22fjdxoPp7IANtYrr17tDbpkLY7HL6SNtpj4Q/jEXvJHPYv1jgajxvsYPWKaOz1RXOTb3zqfN7IjbcHLQlC1rxMmtL5iV0mZuauOrcrP/vnIePmD0gW6cZzvE+Xn9tfRDK8HR7OOq8YYoo6f+yXpk1dlPNQuF+K3PzV8B7T62V/zVt3KN1aOsPcU9LE2D6b6Z+IwbFMudGntCc/F+vKxYOeTKNRs+izSB7pwex5Fo+k8fhAp5VteWVRK1EcBl+Enp3ZtUUtBRO3n8y29EzNLy7cqtTEwlRRlMVAsjqsFAkP48FHlkU4rw48yVyVm6KZhJs+16+tNKtqXf81b04hy9YW++PPj+w/7//8wE7ff/j4+7vf2Jv3v/1+zF6ffDjRA3iVjNri1pVTNBYHLAqSibQ/vUr8oM/SKWLE3KifTF48f6iBuOh7ibOUmd0WO9cfXEIRT0OfTdwwEq/GgRs3XTnkbySPcumz8/Qzrc7Mn6ItmZ03IQ/46xPoVH2zKz0VoJrtMn8S2SzQAR3QAR3QAR3QAR3QAR3QAZ21p/NQ9UMyCsUAbMAGbMAGbMAGbMAGbMAGbMAGbLLZPNBJkmyk7hHogA7ogA7ogA7ogA7ogA7ogA7oFKGjrwGW/sI20/QCUzAFUzAFUzAFUzAFUzAFUzAFUzAF0/VgmiummDKdiSOCKZiCKZiCKZiCKZiCKZiCKZiCKZiC6XowNVJgTVnPFFXBGqzBGqzBGqzBGqzBGqzBGqzBGqzBGqyfkPWC1iB0b5q5YLft2IvH4nTkTkQ7Frdx88XrYBpG+TTuHt75UVxNROjG01Cw5qsNiZEDsrXFjgYD5rIUi9148YhFwZVgg27OndH1sO1OJvJAkYa03tjIuWFR2m4ch7MjZHY6hjfJA18c/Zui+E6euyLpbbp+fxSEjfvDTgwxLgI/3rwR3nAUS4zzYDzQx5g9nXcnx79sHm1+HInwKohiN2anIp4EXgL8Wrix5w9fbGQ9r5dbUT/0JvHPymtebg2868erlfeowRIs5g0OG33pzsdJ+13PF+GZ4zRY2imHjYEXTcbu3YHny/NwNs/HQf/LTw01vwR01gQW302S+2W/bF261+7s08w7ZUkP6bkessPFWTy+uDm9HjYbPzzk2GLb8mib5I/cSFo60OXT36dEfSPlpzpHlXfTM8D6cviRJz7N1P5WzpvKQHLIkLpkSNtkSD0ypB0ypF0ypD0ypH0ypJXDNy2h6Lyc07k5p/NzTufonM7TOZ2rczpf53TOzum83aHzdodwTKfzdofO2x1Db38ovKSZAUMxMADK6CszoIyeMgPK6CczoIwxwQwoY0QwA8oYD8yAMkYDM6CMscAMKCvxGSKR+XZW2jNEIvPurKRniETm31kpzxCJzMOzEp4hEpmPZ6U7QyS68ZvMx7NynSGSiY8/EL7QTHNSG8MAKaObDJEyuskQKaObDJEyhgJDpIyhwBApYygwRMoYCgyRMoYCQ6SsfGcKReflWRnPFIrOz7NynikUnadnZT1TKDpfz8p7plB03p6V+UyhCMd0Om/PSn6mULnejsPocRj9HEjjNhxG/6DgMHodWjiMHofRFyk4jF4WHEaPw+jTgsPos6/EYfT5ALLgMPr1OLMRdEAHdEAHdEAHdEAHdEAHdEBn7ek8s6McwQZswAZswAZswAZswAZswAZs1ofN8zqzEXRAB3RAB3RAB3RAB3RAB3RA51nReUJxtqN+7F178d0bcS3GrPlvyLM9R3m2+UNaDyW27hoosXUrU2LrtDs9EiE2K6AuFdA2FVCPCmiHCmiXCmiPCmifCmhlX74dEplvczLn5mTezcncm5P5NydzcE7m4ZzMxTmZjztkPu7Qjd9kPu6Q+bhj5uP6imurWMUF12xw1L1UXG7NBkc9ChQXW7PBUY8AxaXWbHDU0W8htGYFROXRGenNQmXNCojKqTNym4XEmhUQlV9nJDYLfTWrkZHKszOymoW4mhUQlWdnpLTiymqrOBbCalZA6i6ykFWzAlIHv4WomhWQOvgtJNWsgNTBbyOoZodE5tsZmc1GTc0Oicy9M5KbjZSaHRKZh2fkNxsdNbuxkszHM1KcjYiaHRKZj2dkOSioQUENCmoPGEJBTRYoqEFBDQpqGQUKalBQM2oVFNRW7BtcDwW15QIFtftSwoKtZyY0ADqgAzqgAzqgAzqgAzqgAzqgs/Z0npn+ANiADdiADdiADdiADdiADdiAzfqw+W50D0AHdEAHdEAHdEAHdEAHdEAHdIrbewIFNQimPSvBtNP+SAymSS/L7VCRiBnvrIds2vYayKZtVyabtpNuCi0qcUMF1KUC2qYC6lEB7VAB7VIB7VEB7VMBrey+t0Mi821O5tyczLs5mXtzMv/mZA7OyTyck7k4J/Nxh8zHHbrxm8zHHTIfd8x8XF82bRWruGyaDY66l4rLptngqEeB4rJpNjjqEaC4bJoNjjr6LWTTrICoPDojvVnIplkBUTl1Rm6zkE2zAqLy64zEZiGbZjUyUnl2RlazkE2zAqLy7IyUVlw2bRXHQjbNCkjdRRayaVZA6uC3kE2zAlIHv4VsmhWQOvhtZNPskMh8OyOz2cim2SGRuXdGcrORTbNDIvPwjPxmI5tmN1aS+XhGirORTbNDIvPxjCwH2TTIpkE27QFDyKbJAtk0yKZBNi2jQDYNsmlGrYJs2op9g+shm7ZcIJt2X0pYpfXM1AVAB3RAB3RAB3RAB3RAB3RAB3TWns4zEx0AG7ABG7ABG7ABG7ABG7ABG7BZHzbfjdgB6IAO6IAO6IAO6IAO6IAO6IBOcXuQTZsXyKbdy6bx9ZBN662BbFqvMtm0TtshUU2zwekS4WwT4fSIcHaIcHaJcPaIcPaJcFY23VsBUXk0p3JpTuXTnMqpOZVXcyq35lR+zakcm1N5tkPl2Q7ZWE3l2Q6VZztGnq0vj7YCVVwdzQJG2UPFtdEsYJRxX1wZzQJGGfPFddEsYJTxbqGKZoND5MfqNGYhiWaDQ+TK6hxmoYdmg0PkzeoEZiGGZjMOEvmzOntZKKHZ4BD5szp1FZdBW4GxUEGzwVF2j4UGmg2OMtwtFNBscJThbqF/ZoOjDHcb9TMrICqPVmcwG+kzKyAqp1YnMRvdMysgKr9W5zEb0TOrkZHKs9WpzEbxzAqIyrPV2QxyZ5A7g9zZA4aQO5MFcmeQO4PcWUaB3BnkzoxaBbmzFfsG10PubLlA7uy+lLC66pmpAoAO6IAO6IAO6IAO6IAO6IAO6Kw9nWcmFgA2YAM2YAM2YAM2YAM2YAM2YLM+bL4bkQLQAR3QAR3QAR3QAR3QAR3QAZ3i9iB3Ni+QO7uXO3PWQ+5sZw3kznYqlDvr9Ij0ziyAulRA21RAPSqgHSqgXSqgPSqgfSqgb7bb2yCR+TYnc25O5t2czL05mX9zMgfnZB7OyVyck/m4Q+bjDt34TebjDpmPO2Y+biKDtoxlo4NWHEfdSzZKaMVx1KOAjRZacRz1CGCjhlYcRx39VnpoFkBUHp2R3qwk0SyAqJw6I7dZqaJZAFH5dUZisxJGsxgZqTw7I6tZaaNZAFF5dkZKs5FHW8ax0kezAFJ3kZVCmgWQOvitNNIsgNTBb6WSZgGkDn47nTQbJDLfzshsdlJpNkhk7p2R3OzU0myQyDw8I7/ZCabZjJVkPp6R4uw002yQyHw8I8tBNg2yaZBNe8AQsmmyQDYNsmmQTcsokE2DbJpRqyCbtmLf4HrIpi0XyKbdlxJWaT0zdQHQAR3QAR3QAR3QAR3QAR3QAZ21p/PMRAfABmzABmzABmzABmzABmzABmzWh813I3YAOqADOqADOqADOqADOqADOqBT3B5k0+YFsmn3smnd9ZBN210D2bTdymTTdtJNoUUlbqiAulRA21RAPSqgHSqgXSqgPSqgfSqgld33dkhkvs3JnJuTeTcnc29O5t+czME5mYdzMhfnZD7ukPm4Qzd+k/m4Q+bjjpmP68umrWIVl02zwVH3UnHZNBsc9ShQXDbNBkc9AhSXTbPBUUe/hWyaFRCVR2ekNwvZNCsgKqfOyG0WsmlWQFR+nZHYLGTTrEZGKs/OyGoWsmlWQFSenZHSisumreJYyKZZAam7yEI2zQpIHfwWsmlWQOrgt5BNswJSB7+NbJodEplvZ2Q2G9k0OyQy985IbjayaXZIZB6ekd9sZNPsxkoyH89IcTayaXZIZD6ekeUgmwbZNMimPWAI2TRZIJsG2TTIpmUUyKZBNs2oVZBNW7FvcD1k05YLZNPuSwmrtJ6ZugDogA7ogA7ogA7ogA7ogA7ogM7a03lmogNgAzZgAzZgAzZgAzZgAzZgAzbrw+a7ETsAHdABHdABHdABHdABHdABHdApbg+yafMC2bR72bTt9ZBN21sD2bS9ymTTOm2HRDXNBqdLhLNNhNMjwtkhwtklwtkjwtknwlnZdG8FROXRnMqlOZVPcyqn5lRezancmlP5NadybE7l2Q6VZztkYzWVZztUnu0Yeba+PNoKVHF1NAsYZQ8V10azgFHGfXFlNAsYZcwX10WzgFHGu4Uqmg0OkR+r05iFJJoNDpErq3OYhR6aDQ6RN6sTmIUYms04SOTP6uxloYRmg0Pkz+rUVVwGbQXGQgXNBkfZPRYaaDY4ynC3UECzwVGGu4X+mQ2OMtxt1M+sgKg8Wp3BbKTPrIConFqdxGx0z6yAqPxancdsRM+sRkYqz1anMhvFMysgKs9WZzPInUHuDHJnDxhC7kwWyJ1B7gxyZxkFcmeQOzNqFeTOVuwbXA+5s+UCubP7UsLqqmemCgA6oAM6oAM6oAM6oAM6oAM6oLP2dJ6ZWADYgA3YgA3YgA3YgA3YgA3YgM36sPluRApAB3RAB3RAB3RAB3RAB3RAB3SK24Pc2bxA7uxe7qy3HnJn+2sgd7ZfodxZp0ekd2YB1KUC2qYC6lEB7VAB7VIB7VEB7VMBfbPd3gaJzLc5mXNzMu/mZO7Nyfybkzk4J/NwTubinMzHHTIfd+jGbzIfd8h83DHzcRMZtGUsGx204jjqXrJRQiuOox4FbLTQiuOoRwAbNbTiOOrot9JDswCi8uiM9GYliWYBROXUGbnNShXNAojKrzMSm5UwmsXISOXZGVnNShvNAojKszNSmo082jKOlT6aBZC6i6wU0iyA1MFvpZFmAaQOfiuVNAsgdfDb6aTZIJH5dkZms5NKs0Eic++M5GanlmaDRObhGfnNTjDNZqwk8/GMFGenmWaDRObjGVkOsmmQTYNs2gOGkE2TBbJpkE2DbFpGgWwaZNOMWgXZtBX7BtdDNm25QDbtvpSwSuuZqQuADuiADuiADuiADuiADuiADuisPZ1nJjoANmADNmADNmADNmADNmADNmCzPmy+G7ED0AEd0AEd0AEd0AEd0AEd0AGd4vYgmzYvkE27l03bWQvZtG7n+cumJRyrkk3bSTeFFpW4oQLqUgFtUwH1qIB2qIB2qYD2qID2qYBWdt/bIZH5Nidzbk7m3ZzMvTmZf3MyB+dkHs7JXJyT+bhD5uMO3fhN5uMOmY87Zj6uL5u2ilVcNs0GR91LxWXTbHDUo0Bx2TQbHPUIUFw2zQZHHf0WsmlWQFQenZHeLGTTrIConDojt1nIplkBUfl1RmKzkE2zGhmpPDsjq1nIplkBUXl2RkorLpu2imMhm2YFpO4iC9k0KyB18FvIplkBqYPfQjbNCkgd/DayaXZIZL6dkdlsZNPskMjcOyO52cim2SGReXhGfrORTbMbK8l8PCPF2cim2SGR+XhGloNsGmTTIJv2gCFk02SBbBpk0yCbllEgmwbZNKNWQTZtxb7B9ZBNWy6QTbsvJazSembqAqADOqADOqADOqADOqADOqADOmtP55mJDoAN2IAN2IAN2IAN2IAN2IAN2KwPm+9G7AB0QAd0QAd0QAd0QAd0QAd0QKe4PcimzQtk0+5l03bXQzaNr4FsGq9MNq3TdkhU02xwukQ420Q4PSKcHSKcXSKcPSKcfSKclU33VkBUHs2pXJpT+TSncmpO5dWcyq05lV9zKsfmVJ7tUHm2QzZWU3m2Q+XZjpFn68ujrUAVV0ezgFH2UHFtNAsYZdwXV0azgFHGfHFdNAsYZbxbqKLZ4BD5sTqNWUii2eAQubI6h1noodngEHmzOoFZiKHZjINE/qzOXhZKaDY4RP6sTl3FZdBWYCxU0GxwlN1joYFmg6MMdwsFNBscZbhb6J/Z4CjD3Ub9zAqIyqPVGcxG+swKiMqp1UnMRvfMCojKr9V5zEb0zGpkpPJsdSqzUTyzAqLybHU2g9wZ5M4gd/aAIeTOZIHcGeTOIHeWUSB3Brkzo1ZB7mzFvsH1kDtbLpA7uy8lrK56ZqoAoAM6oAM6oAM6oAM6oAM6oAM6a0/nmYkFgA3YgA3YgA3YgA3YgA3YgA3YrA+b70akAHRAB3RAB3RAB3RAB3RAB3RAp7g9yJ3NC+TOFnJn3fVQO3PWQO3MqVDtrNMjkjuzAOpSAW1TAfWogHaogHapgPaogPapgL7ZbW+DRObbnMy5OZl3czL35mT+zckcnJN5OCdzcU7m4w6Zjzt04zeZjztkPu6Y+biJCtoylo0MWnEcdS/ZCKEVx1GPAjZSaMVx1COAjRhacRx19FvJoVkAUXl0RnqzUkSzAKJy6ozcZiWKZgFE5dcZic1KF81iZKTy7IysZiWNZgFE5dkZKc1GHW0Zx0oezQJI3UVWAmkWQOrgt5JIswBSB7+VSJoFkDr47WTSbJDIfDsjs9kppdkgkbl3RnKzE0uzQSLz8Iz8ZqeXZjNWkvl4Roqzk0yzQSLz8YwsB9U0qKZBNe0BQ6imyQLVNKimQTUto0A1DappRq2CatqKfYProZq2XKCadl9KWKT1zMQFQAd0QAd0QAd0QAd0QAd0QAd01p7OM9McABuwARuwARuwARuwARuwARuwWR82343WAeiADuiADuiADuiADuiADuiATnF7UE2bF6imLVTTttdDNa27Bqpp3cpU03bSPaFFFW6ogLpUQNtUQD0qoB0qoF0qoD0qoH0qoJXN93ZIZL7NyZybk3k3J3NvTubfnMzBOZmHczIX52Q+7pD5uEM3fpP5uEPm446Zj+urpq1iFVdNs8FR91Jx1TQbHPUoUFw1zQZHPQIUV02zwVFHv4VqmhUQlUdnpDcL1TQrICqnzshtFqppVkBUfp2R2CxU06xGRirPzshqFqppVkBUnp2R0oqrpq3iWKimWQGpu8hCNc0KSB38FqppVkDq4LdQTbMCUge/jWqaHRKZb2dkNhvVNDskMvfOSG42qml2SGQenpHfbFTT7MZKMh/PSHE2qml2SGQ+npHloJoG1TSopj1gCNU0WaCaBtU0qKZlFKimQTXNqFVQTVuxb3A9VNOWC1TT7ksJi7SembgA6IAO6IAO6IAO6IAO6IAO6IDO2tN5ZpoDYAM2YAM2YAM2YAM2YAM2YAM268Pmu9E6AB3QAR3QAR3QAR3QAR3QAR3QKW4PqmnzAtW0hWpabz1U07bXQDVtuzLVtE7bIRFNs8HpEuFsE+H0iHB2iHB2iXD2iHD2iXBW9txbAVF5NKdyaU7l05zKqTmVV3Mqt+ZUfs2pHJtTebZD5dkO2VhN5dkOlWc7Rp6tr462AlVcHM0CRtlDxaXRLGCUcV9cGM0CRhnzxWXRLGCU8W4himaDQ+TH6jRmoYhmg0PkyuocZiGHZoND5M3qBGahhWYzDhL5szp7WQih2eAQ+bM6dRVXQVuBsRBBs8FRdo+FBJoNjjLcLQTQbHCU4W4hf2aDowx3G/EzKyAqj1ZnMBvlMysgKqdWJzEb2TMrICq/VucxG80zq5GRyrPVqcxG8MwKiMqz1dkMamdQO4Pa2QOGUDuTBWpnUDuD2llGgdoZ1M6MWgW1sxX7BtdD7Wy5QO3svpSwuOqZiQKADuiADuiADuiADuiADuiADuisPZ1nphUANmADNmADNmADNmADNmADNmCzPmy+G40C0AEd0AEd0AEd0AEd0AEd0AGd4vagdjYvUDtbqJ3trIfaWW8N1M56FaqddXpEcmcWQF0qoG0qoB4V0A4V0C4V0B4V0D4V0De77W2QyHybkzk3J/NuTubenMy/OZmDczIP52Quzsl83CHzcYdu/CbzcYfMxx0zHzdRQVvGspFBK46j7iUbIbTiOOpRwEYKrTiOegSwEUMrjqOOfis5NAsgKo/OSG9WimgWQFROnZHbrETRLICo/DojsVnpolmMjFSenZHVrKTRLICoPDsjpdmooy3jWMmjWQCpu8hKIM0CSB38VhJpFkDq4LcSSbMAUge/nUyaDRKZb2dkNjulNBskMvfOSG52Ymk2SGQenpHf7PTSbMZKMh/PSHF2kmk2SGQ+npHloJoG1TSopj1gCNU0WaCaBtU0qKZlFKimQTXNqFVQTVuxb3A9VNOWC1TT7ksJi7SembgA6IAO6IAO6IAO6IAO6IAO6IDO2tN5ZpoDYAM2YAM2YAM2YAM2YAM2YAM268Pmu9E6AB3QAR3QAR3QAR3QAR3QAR3QKW4PqmnzAtW0hWra7nqopu2sgWraTmWqaTvpntCiCjdUQF0qoG0qoB4V0A4V0C4V0B4V0D4V0MrmezskMt/mZM7Nybybk7k3J/NvTubgnMzDOZmLczIfd8h83KEbv8l83CHzccfMx/VV01axiqum2eCoe6m4apoNjnoUKK6aZoOjHgGKq6bZ4Kij30I1zQqIyqMz0puFapoVEJVTZ+Q2C9U0KyAqv85IbBaqaVYjI5VnZ2Q1C9U0KyAqz85IacVV01ZxLFTTrIDUXWShmmYFpA5+C9U0KyB18FuoplkBqYPfRjXNDonMtzMym41qmh0SmXtnJDcb1TQ7JDIPz8hvNqppdmMlmY9npDgb1TQ7JDIfz8hyUE2DahpU0x4whGqaLFBNg2oaVNMyClTToJpm1Cqopq3YN7geqmnLBapp96WERVrPTFwAdEAHdEAHdEAHdEAHdEAHdEBn7ek8M80BsAEbsAEbsAEbsAEbsAEbsAGb9WHz3WgdgA7ogA7ogA7ogA7ogA7ogA7oFLcH1bR5gWraQjVtbz1U03bXQDVttzLVtE7bIRFNs8HpEuFsE+H0iHB2iHB2iXD2iHD2iXBW9txbAVF5NKdyaU7l05zKqTmVV3Mqt+ZUfs2pHJtTebZD5dkO2VhN5dkOlWc7Rp6tr462AlVcHM0CRtlDxaXRLGCUcV9cGM0CRhnzxWXRLGCU8W4himaDQ+TH6jRmoYhmg0PkyuocZiGHZoND5M3qBGahhWYzDhL5szp7WQih2eAQ+bM6dRVXQVuBsRBBs8FRdo+FBJoNjjLcLQTQbHCU4W4hf2aDowx3G/EzKyAqj1ZnMBvlMysgKqdWJzEb2TMrICq/VucxG80zq5GRyrPVqcxG8MwKiMqz1dkMamdQO4Pa2QOGUDuTBWpnUDuD2llGgdoZ1M6MWgW1sxX7BtdD7Wy5QO3svpSwuOqZiQKADuiADuiADuiADuiADuiADuisPZ1nphUANmADNmADNmADNmADNmADNmCzPmy+G40C0AEd0AEd0AEd0AEd0AEd0AGd4vagdjYvUDtbqJ3tr4fa2d4aqJ3tVaZ2xrc77c5S4dsk4meEsN1yYLfLge2VA7tTDuxuObB75cDulwO7stefErekOOMlBRovKdJ4SaHGS4o1XlKw8ZKijZcUbrykeHNKijenrLxWUrw5JcWbYxNv+qpyWcjFReboUHV7t7gEHR2q7khWXKCODlV3FCsuX0eHqjuCWYjbEcKWE13a0wULJTxC2HICTHuuYCGbRwhbToxpTxQsNPYIs0I5UaY9S7AQ5COELSfKtKcIxdX7slAtxPwIYXW71kLqjxBWdwCzEAIkhNUdwCxkAglhdQcwGxFBStyS4kx7pmCjOEiJW1KoaU8WbOQJKXFLijbt+YKNliFlnigp3rSnDDbCh5S4JcWb9qwBKolQSYRK4gOGUEmUBSqJUEmESmJGgUoiVBKNWgWVxBX7BtdDJXG5QCXxvpSwKPOZiYmADuiADuiADuiADuiADuiADuisPZ1npjECNmADNmADNmADNmADNmADNmCzPmy+G20T0AEd0AEd0AEd0AEd0AEd0AGd4vaeQCXxo7iaiNCNp6FgzVcbEE18XqKJIrz2+oL925We9yYIJkw+MLnOebvzaj0EFPfXQEBxvzIBxZ399v5S2dsn0U+kQ+2WgrpdCmqvFNSdUlB3S0HdKwV1vxTUFXkDQthyoouXE168nPji5QQYLyfCeDkhxsuJMV5OkPFyoswpJ8qcknJYOVHmlBNljkWU6QslZgAX10kkA9Xs2eIqiWSgmmNXcY1EMlDNcau4QiIZqOaYZaGPSIdaSkzpTgssxBHpUEsJK905gYUyIh1qKZGlOyGwkEWkywGlxJbubMBCE5EOtZTY0p0KFBdEzAC10EOkQ9XsVgs1RDpUzSHLQguRDlVzyLJQQqRD1RyybHQQCWHLiS7dGYGNCCIhbDkBpjspsFFAJIQtJ8Z05wU28oeEWaGcKNOdGthoHxLClhNlurMDCB9C+BDChw8YQvhQFggfQvgQwocZBcKHED40ahWED1fsG1wP4cPlAuHD+1LCOstnpg8COqADOqADOqADOqADOqADOqCz9nSemWwI2IAN2IAN2IAN2IAN2IAN2IDN+rD5buRKQAd0QAd0QAd0QAd0QAd0QAd0ituD8OHj5bsVPpwJHr4W6f+Ors494ccz6cPT/kgMpkn/b7LdNZFA3O48fwnEhGNVEojpxtOiEkxEOF0inG0inB4Rzg4Rzi4Rzh4Rzj4Rzoq2gBUQlUdzKpfmVD7NqZyaU3k1p3JrTuXXnMqxOZVnO1Se7ZCN1VSe7VB5tmPk2fqSfStQxUX6LGCUPVRciM8CRhn3xcX2LGCUMV9cUM8CRhnvFqJ5NjhEfqxOYxZSeDY4RK6szmEWAnc2OETerE5gFrJ1NuMgkT+rs5eFGJ0NDpE/q1NXcYm5FRgLUTkbHGX3WAjH2eAow91CHM4GRxnuFgJwNjjKcLcRebMCovJodQazkW6zAqJyanUSsxFkswKi8mt1HrORWbMaGak8W53KbMTTrICoPFudzSCJthaSaKhGNapRjWpUoxrVqEY1qlGNalSjGtWofk7Vd+3gWoShNxBvXfmiirc7kMRfagkk8e8LJPGNCiTxIYlvUCCJ/22BJP63BZL4hgWS+JDEf7RAEh90QAd0QAd0QAd0QAd0QAd0QAd01kFQEmzABmzABmzABmzABmzABmzAZn3YfDdClqADOqADOqADOqADOqADOqADOsXtPYEk/q/elfAjL/DHIoogiP+8BPGD8As7ubjw+p7w+3f3MvjVCuDPr/6mZvnfi7/P/n+PPv/L/f/Og8Gd/P8ovhr//F//H7Z0rS4="
               },
               {
                  "name" : "annual_peak_electric_demand",
                  "units" : "kW",
                  "value" : 17.418970000000002
               },
               {
                  "name" : "first_year_capital_cost",
                  "units" : "$",
                  "value" : 0
               },
               {
                  "name" : "annual_utility_cost",
                  "units" : "$",
                  "value" : 8393.25
               },
               {
                  "name" : "total_lifecycle_cost",
                  "units" : "$",
                  "value" : 141730.54999999999
               }
            ],
            "step_warnings" : []
         }
      }
   ],
   "updated_at" : "20170710T193217Z",
   "weather_file" : "USA_CO_Denver.Intl.AP.725650_TMY3.epw"
}
