{
   "completed_at" : "20170710T192730Z",
   "completed_status" : "Success",
   "created_at" : "2017-07-10 19:22:07 +0000",
   "current_step" : 5,
   "description" : "",
   "eplusout_err" : "Program Version,EnergyPlus, Version 8.7.0-78a111df4a, YMD=2017.07.10 19:23,IDD_Version 8.7.0\n   ************* IDF Context for following error/warning message:\n   ************* Note -- lines truncated at 300 characters, if necessary...\n   *************      5 Building,\n   ************* indicated Name=NECB 2011-MidriseApartment-NECB HDD Method-CAN_AB_Edmonton.711230_CWEC.epw created: 2017-07-10 19:22:14 +0000\n   ************* Only last 1 lines before error line shown.....\n   *************      6   NECB 2011-MidriseApartment-NECB HDD Method-CAN_AB_Edmonton.711230_CWEC.epw created: 2017-07-10 19:22:14 +0000, !- Name\n   ** Warning ** IP: IDF line~6 Alpha Argument length exceeds maximum, will be truncated=  NECB 2011-MidriseApartment-NECB HDD Method-CAN_AB_Edmonton.711230_CWEC.epw created: 2017-07-10 19:22:14 +000\n   **   ~~~   ** Will be processed as Alpha=NECB 2011-MIDRISEAPARTMENT-NECB HDD METHOD-CAN_AB_EDMONTON.711230_CWEC.EPW CREATED: 2017-07-10 19:22:14 +0000\n   ************* Beginning Zone Sizing Calculations\n   ** Warning ** ProcessScheduleInput: Schedule:Day:Interval=\"ECONOMIZER MAX OA FRACTION 100 PCT DEFAULT\", Blank Schedule Type Limits Name input -- will not be validated.\n   ** Warning ** ProcessScheduleInput: Schedule:Day:Interval=\"SCHEDULE DAY 1\", Blank Schedule Type Limits Name input -- will not be validated.\n   ** Warning ** ProcessScheduleInput: Schedule:Day:Interval=\"SCHEDULE DAY 10\", Blank Schedule Type Limits Name input -- will not be validated.\n   ** Warning ** ProcessScheduleInput: Schedule:Day:Interval=\"SCHEDULE DAY 11\", Blank Schedule Type Limits Name input -- will not be validated.\n   ** Warning ** ProcessScheduleInput: Schedule:Day:Interval=\"SCHEDULE DAY 12\", Blank Schedule Type Limits Name input -- will not be validated.\n   ** Warning ** ProcessScheduleInput: Schedule:Day:Interval=\"SCHEDULE DAY 13\", Blank Schedule Type Limits Name input -- will not be validated.\n   ** Warning ** ProcessScheduleInput: Schedule:Day:Interval=\"SCHEDULE DAY 14\", Blank Schedule Type Limits Name input -- will not be validated.\n   ** Warning ** ProcessScheduleInput: Schedule:Day:Interval=\"SCHEDULE DAY 15\", Blank Schedule Type Limits Name input -- will not be validated.\n   ** Warning ** ProcessScheduleInput: Schedule:Day:Interval=\"SCHEDULE DAY 16\", Blank Schedule Type Limits Name input -- will not be validated.\n   ** Warning ** ProcessScheduleInput: Schedule:Day:Interval=\"SCHEDULE DAY 17\", Blank Schedule Type Limits Name input -- will not be validated.\n   ** Warning ** ProcessScheduleInput: Schedule:Day:Interval=\"SCHEDULE DAY 18\", Blank Schedule Type Limits Name input -- will not be validated.\n   ** Warning ** ProcessScheduleInput: Schedule:Day:Interval=\"SCHEDULE DAY 19\", Blank Schedule Type Limits Name input -- will not be validated.\n   ** Warning ** ProcessScheduleInput: Schedule:Day:Interval=\"SCHEDULE DAY 2\", Blank Schedule Type Limits Name input -- will not be validated.\n   ** Warning ** ProcessScheduleInput: Schedule:Day:Interval=\"SCHEDULE DAY 20\", Blank Schedule Type Limits Name input -- will not be validated.\n   ** Warning ** ProcessScheduleInput: Schedule:Day:Interval=\"SCHEDULE DAY 21\", Blank Schedule Type Limits Name input -- will not be validated.\n   ** Warning ** ProcessScheduleInput: Schedule:Day:Interval=\"SCHEDULE DAY 22\", Blank Schedule Type Limits Name input -- will not be validated.\n   ** Warning ** ProcessScheduleInput: Schedule:Day:Interval=\"SCHEDULE DAY 23\", Blank Schedule Type Limits Name input -- will not be validated.\n   ** Warning ** ProcessScheduleInput: Schedule:Day:Interval=\"SCHEDULE DAY 24\", Blank Schedule Type Limits Name input -- will not be validated.\n   ** Warning ** ProcessScheduleInput: Schedule:Day:Interval=\"SCHEDULE DAY 25\", Blank Schedule Type Limits Name input -- will not be validated.\n   ** Warning ** ProcessScheduleInput: Schedule:Day:Interval=\"SCHEDULE DAY 26\", Blank Schedule Type Limits Name input -- will not be validated.\n   ** Warning ** ProcessScheduleInput: Schedule:Day:Interval=\"SCHEDULE DAY 27\", Blank Schedule Type Limits Name input -- will not be validated.\n   ** Warning ** ProcessScheduleInput: Schedule:Day:Interval=\"SCHEDULE DAY 28\", Blank Schedule Type Limits Name input -- will not be validated.\n   ** Warning ** ProcessScheduleInput: Schedule:Day:Interval=\"SCHEDULE DAY 29\", Blank Schedule Type Limits Name input -- will not be validated.\n   ** Warning ** ProcessScheduleInput: Schedule:Day:Interval=\"SCHEDULE DAY 30\", Blank Schedule Type Limits Name input -- will not be validated.\n   ** Warning ** ProcessScheduleInput: Schedule:Day:Interval=\"SCHEDULE DAY 31\", Blank Schedule Type Limits Name input -- will not be validated.\n   ** Warning ** ProcessScheduleInput: Schedule:Day:Interval=\"SCHEDULE DAY 32\", Blank Schedule Type Limits Name input -- will not be validated.\n   ** Warning ** ProcessScheduleInput: Schedule:Day:Interval=\"SCHEDULE DAY 33\", Blank Schedule Type Limits Name input -- will not be validated.\n   ** Warning ** ProcessScheduleInput: Schedule:Day:Interval=\"SCHEDULE DAY 34\", Blank Schedule Type Limits Name input -- will not be validated.\n   ** Warning ** ProcessScheduleInput: Schedule:Day:Interval=\"SCHEDULE DAY 35\", Blank Schedule Type Limits Name input -- will not be validated.\n   ** Warning ** ProcessScheduleInput: Schedule:Day:Interval=\"SCHEDULE DAY 36\", Blank Schedule Type Limits Name input -- will not be validated.\n   ** Warning ** ProcessScheduleInput: Schedule:Day:Interval=\"SCHEDULE DAY 37\", Blank Schedule Type Limits Name input -- will not be validated.\n   ** Warning ** ProcessScheduleInput: Schedule:Day:Interval=\"SCHEDULE DAY 38\", Blank Schedule Type Limits Name input -- will not be validated.\n   ** Warning ** ProcessScheduleInput: Schedule:Day:Interval=\"SCHEDULE DAY 39\", Blank Schedule Type Limits Name input -- will not be validated.\n   ** Warning ** ProcessScheduleInput: Schedule:Day:Interval=\"SCHEDULE DAY 40\", Blank Schedule Type Limits Name input -- will not be validated.\n   ** Warning ** ProcessScheduleInput: Schedule:Day:Interval=\"SCHEDULE DAY 41\", Blank Schedule Type Limits Name input -- will not be validated.\n   ** Warning ** ProcessScheduleInput: Schedule:Day:Interval=\"SCHEDULE DAY 42\", Blank Schedule Type Limits Name input -- will not be validated.\n   ** Warning ** ProcessScheduleInput: Schedule:Day:Interval=\"SCHEDULE DAY 43\", Blank Schedule Type Limits Name input -- will not be validated.\n   ** Warning ** ProcessScheduleInput: Schedule:Day:Interval=\"SCHEDULE DAY 44\", Blank Schedule Type Limits Name input -- will not be validated.\n   ** Warning ** ProcessScheduleInput: Schedule:Day:Interval=\"SCHEDULE DAY 45\", Blank Schedule Type Limits Name input -- will not be validated.\n   ** Warning ** ProcessScheduleInput: Schedule:Day:Interval=\"SCHEDULE DAY 46\", Blank Schedule Type Limits Name input -- will not be validated.\n   ** Warning ** ProcessScheduleInput: Schedule:Day:Interval=\"SCHEDULE DAY 47\", Blank Schedule Type Limits Name input -- will not be validated.\n   ** Warning ** ProcessScheduleInput: Schedule:Day:Interval=\"SCHEDULE DAY 48\", Blank Schedule Type Limits Name input -- will not be validated.\n   ** Warning ** ProcessScheduleInput: Schedule:Day:Interval=\"SCHEDULE DAY 49\", Blank Schedule Type Limits Name input -- will not be validated.\n   ** Warning ** ProcessScheduleInput: Schedule:Day:Interval=\"SCHEDULE DAY 50\", Blank Schedule Type Limits Name input -- will not be validated.\n   ** Warning ** ProcessScheduleInput: Schedule:Day:Interval=\"SCHEDULE DAY 51\", Blank Schedule Type Limits Name input -- will not be validated.\n   ** Warning ** ProcessScheduleInput: Schedule:Day:Interval=\"SCHEDULE DAY 52\", Blank Schedule Type Limits Name input -- will not be validated.\n   ** Warning ** ProcessScheduleInput: Schedule:Day:Interval=\"SCHEDULE DAY 53\", Blank Schedule Type Limits Name input -- will not be validated.\n   ** Warning ** ProcessScheduleInput: Schedule:Day:Interval=\"SCHEDULE DAY 54\", Blank Schedule Type Limits Name input -- will not be validated.\n   ** Warning ** ProcessScheduleInput: Schedule:Day:Interval=\"SCHEDULE DAY 55\", Blank Schedule Type Limits Name input -- will not be validated.\n   ** Warning ** ProcessScheduleInput: Schedule:Day:Interval=\"SCHEDULE DAY 56\", Blank Schedule Type Limits Name input -- will not be validated.\n   ** Warning ** ProcessScheduleInput: Schedule:Day:Interval=\"SCHEDULE DAY 57\", Blank Schedule Type Limits Name input -- will not be validated.\n   ** Warning ** ProcessScheduleInput: Schedule:Day:Interval=\"SCHEDULE DAY 58\", Blank Schedule Type Limits Name input -- will not be validated.\n   ** Warning ** ProcessScheduleInput: Schedule:Day:Interval=\"SCHEDULE DAY 59\", Blank Schedule Type Limits Name input -- will not be validated.\n   ** Warning ** ProcessScheduleInput: Schedule:Day:Interval=\"SCHEDULE DAY 6\", Blank Schedule Type Limits Name input -- will not be validated.\n   ** Warning ** ProcessScheduleInput: Schedule:Day:Interval=\"SCHEDULE DAY 60\", Blank Schedule Type Limits Name input -- will not be validated.\n   ** Warning ** ProcessScheduleInput: Schedule:Day:Interval=\"SCHEDULE DAY 61\", Blank Schedule Type Limits Name input -- will not be validated.\n   ** Warning ** ProcessScheduleInput: Schedule:Day:Interval=\"SCHEDULE DAY 62\", Blank Schedule Type Limits Name input -- will not be validated.\n   ** Warning ** ProcessScheduleInput: Schedule:Day:Interval=\"SCHEDULE DAY 63\", Blank Schedule Type Limits Name input -- will not be validated.\n   ** Warning ** ProcessScheduleInput: Schedule:Day:Interval=\"SCHEDULE DAY 64\", Blank Schedule Type Limits Name input -- will not be validated.\n   ** Warning ** ProcessScheduleInput: Schedule:Day:Interval=\"SCHEDULE DAY 65\", Blank Schedule Type Limits Name input -- will not be validated.\n   ** Warning ** ProcessScheduleInput: Schedule:Day:Interval=\"SCHEDULE DAY 66\", Blank Schedule Type Limits Name input -- will not be validated.\n   ** Warning ** ProcessScheduleInput: Schedule:Day:Interval=\"SCHEDULE DAY 67\", Blank Schedule Type Limits Name input -- will not be validated.\n   ** Warning ** ProcessScheduleInput: Schedule:Day:Interval=\"SCHEDULE DAY 68\", Blank Schedule Type Limits Name input -- will not be validated.\n   ** Warning ** ProcessScheduleInput: Schedule:Day:Interval=\"SCHEDULE DAY 69\", Blank Schedule Type Limits Name input -- will not be validated.\n   ** Warning ** ProcessScheduleInput: Schedule:Day:Interval=\"SCHEDULE DAY 7\", Blank Schedule Type Limits Name input -- will not be validated.\n   ** Warning ** ProcessScheduleInput: Schedule:Day:Interval=\"SCHEDULE DAY 70\", Blank Schedule Type Limits Name input -- will not be validated.\n   ** Warning ** ProcessScheduleInput: Schedule:Day:Interval=\"SCHEDULE DAY 71\", Blank Schedule Type Limits Name input -- will not be validated.\n   ** Warning ** ProcessScheduleInput: Schedule:Day:Interval=\"SCHEDULE DAY 72\", Blank Schedule Type Limits Name input -- will not be validated.\n   ** Warning ** ProcessScheduleInput: Schedule:Day:Interval=\"SCHEDULE DAY 73\", Blank Schedule Type Limits Name input -- will not be validated.\n   ** Warning ** ProcessScheduleInput: Schedule:Day:Interval=\"SCHEDULE DAY 74\", Blank Schedule Type Limits Name input -- will not be validated.\n   ** Warning ** ProcessScheduleInput: Schedule:Day:Interval=\"SCHEDULE DAY 75\", Blank Schedule Type Limits Name input -- will not be validated.\n   ** Warning ** ProcessScheduleInput: Schedule:Day:Interval=\"SCHEDULE DAY 76\", Blank Schedule Type Limits Name input -- will not be validated.\n   ** Warning ** ProcessScheduleInput: Schedule:Day:Interval=\"SCHEDULE DAY 77\", Blank Schedule Type Limits Name input -- will not be validated.\n   ** Warning ** ProcessScheduleInput: Schedule:Day:Interval=\"SCHEDULE DAY 78\", Blank Schedule Type Limits Name input -- will not be validated.\n   ** Warning ** ProcessScheduleInput: Schedule:Day:Interval=\"SCHEDULE DAY 79\", Blank Schedule Type Limits Name input -- will not be validated.\n   ** Warning ** ProcessScheduleInput: Schedule:Day:Interval=\"SCHEDULE DAY 8\", Blank Schedule Type Limits Name input -- will not be validated.\n   ** Warning ** ProcessScheduleInput: Schedule:Day:Interval=\"SCHEDULE DAY 9\", Blank Schedule Type Limits Name input -- will not be validated.\n   ** Warning ** ProcessScheduleInput: Schedule:Year=\"ECONOMIZER MAX OA FRACTION 100 PCT\", Blank Schedule Type Limits Name input -- will not be validated.\n   ** Warning ** ProcessScheduleInput: Schedule:Year=\"SCHEDULE RULESET 10\", Blank Schedule Type Limits Name input -- will not be validated.\n   ** Warning ** ProcessScheduleInput: Schedule:Year=\"SCHEDULE RULESET 11\", Blank Schedule Type Limits Name input -- will not be validated.\n   ** Warning ** ProcessScheduleInput: Schedule:Year=\"SCHEDULE RULESET 12\", Blank Schedule Type Limits Name input -- will not be validated.\n   ** Warning ** ProcessScheduleInput: Schedule:Year=\"SCHEDULE RULESET 13\", Blank Schedule Type Limits Name input -- will not be validated.\n   ** Warning ** ProcessScheduleInput: Schedule:Year=\"SCHEDULE RULESET 14\", Blank Schedule Type Limits Name input -- will not be validated.\n   ** Warning ** ProcessScheduleInput: Schedule:Year=\"SCHEDULE RULESET 15\", Blank Schedule Type Limits Name input -- will not be validated.\n   ** Warning ** ProcessScheduleInput: Schedule:Year=\"SCHEDULE RULESET 16\", Blank Schedule Type Limits Name input -- will not be validated.\n   ** Warning ** ProcessScheduleInput: Schedule:Year=\"SCHEDULE RULESET 17\", Blank Schedule Type Limits Name input -- will not be validated.\n   ** Warning ** ProcessScheduleInput: Schedule:Year=\"SCHEDULE RULESET 18\", Blank Schedule Type Limits Name input -- will not be validated.\n   ** Warning ** ProcessScheduleInput: Schedule:Year=\"SCHEDULE RULESET 19\", Blank Schedule Type Limits Name input -- will not be validated.\n   ** Warning ** ProcessScheduleInput: Schedule:Year=\"SCHEDULE RULESET 20\", Blank Schedule Type Limits Name input -- will not be validated.\n   ** Warning ** ProcessScheduleInput: Schedule:Year=\"SCHEDULE RULESET 21\", Blank Schedule Type Limits Name input -- will not be validated.\n   ** Warning ** ProcessScheduleInput: Schedule:Year=\"SCHEDULE RULESET 22\", Blank Schedule Type Limits Name input -- will not be validated.\n   ** Warning ** ProcessScheduleInput: Schedule:Year=\"SCHEDULE RULESET 23\", Blank Schedule Type Limits Name input -- will not be validated.\n   ** Warning ** ProcessScheduleInput: Schedule:Year=\"SCHEDULE RULESET 24\", Blank Schedule Type Limits Name input -- will not be validated.\n   ** Warning ** ProcessScheduleInput: Schedule:Year=\"SCHEDULE RULESET 25\", Blank Schedule Type Limits Name input -- will not be validated.\n   ** Warning ** ProcessScheduleInput: Schedule:Year=\"SCHEDULE RULESET 26\", Blank Schedule Type Limits Name input -- will not be validated.\n   ** Warning ** ProcessScheduleInput: Schedule:Year=\"SCHEDULE RULESET 27\", Blank Schedule Type Limits Name input -- will not be validated.\n   ** Warning ** ProcessScheduleInput: Schedule:Year=\"SCHEDULE RULESET 28\", Blank Schedule Type Limits Name input -- will not be validated.\n   ** Warning ** ProcessScheduleInput: Schedule:Year=\"SCHEDULE RULESET 29\", Blank Schedule Type Limits Name input -- will not be validated.\n   ** Warning ** ProcessScheduleInput: Schedule:Year=\"SCHEDULE RULESET 3\", Blank Schedule Type Limits Name input -- will not be validated.\n   ** Warning ** ProcessScheduleInput: Schedule:Year=\"SCHEDULE RULESET 30\", Blank Schedule Type Limits Name input -- will not be validated.\n   ** Warning ** ProcessScheduleInput: Schedule:Year=\"SCHEDULE RULESET 31\", Blank Schedule Type Limits Name input -- will not be validated.\n   ** Warning ** ProcessScheduleInput: Schedule:Year=\"SCHEDULE RULESET 32\", Blank Schedule Type Limits Name input -- will not be validated.\n   ** Warning ** ProcessScheduleInput: Schedule:Year=\"SCHEDULE RULESET 33\", Blank Schedule Type Limits Name input -- will not be validated.\n   ** Warning ** ProcessScheduleInput: Schedule:Year=\"SCHEDULE RULESET 34\", Blank Schedule Type Limits Name input -- will not be validated.\n   ** Warning ** ProcessScheduleInput: Schedule:Year=\"SCHEDULE RULESET 35\", Blank Schedule Type Limits Name input -- will not be validated.\n   ** Warning ** ProcessScheduleInput: Schedule:Year=\"SCHEDULE RULESET 36\", Blank Schedule Type Limits Name input -- will not be validated.\n   ** Warning ** ProcessScheduleInput: Schedule:Year=\"SCHEDULE RULESET 37\", Blank Schedule Type Limits Name input -- will not be validated.\n   ** Warning ** ProcessScheduleInput: Schedule:Year=\"SCHEDULE RULESET 38\", Blank Schedule Type Limits Name input -- will not be validated.\n   ** Warning ** ProcessScheduleInput: Schedule:Year=\"SCHEDULE RULESET 39\", Blank Schedule Type Limits Name input -- will not be validated.\n   ** Warning ** ProcessScheduleInput: Schedule:Year=\"SCHEDULE RULESET 4\", Blank Schedule Type Limits Name input -- will not be validated.\n   ** Warning ** ProcessScheduleInput: Schedule:Year=\"SCHEDULE RULESET 40\", Blank Schedule Type Limits Name input -- will not be validated.\n   ** Warning ** ProcessScheduleInput: Schedule:Year=\"SCHEDULE RULESET 41\", Blank Schedule Type Limits Name input -- will not be validated.\n   ** Warning ** ProcessScheduleInput: Schedule:Year=\"SCHEDULE RULESET 42\", Blank Schedule Type Limits Name input -- will not be validated.\n   ** Warning ** ProcessScheduleInput: Schedule:Year=\"SCHEDULE RULESET 43\", Blank Schedule Type Limits Name input -- will not be validated.\n   ** Warning ** ProcessScheduleInput: Schedule:Year=\"SCHEDULE RULESET 44\", Blank Schedule Type Limits Name input -- will not be validated.\n   ** Warning ** ProcessScheduleInput: Schedule:Year=\"SCHEDULE RULESET 45\", Blank Schedule Type Limits Name input -- will not be validated.\n   ** Warning ** ProcessScheduleInput: Schedule:Year=\"SCHEDULE RULESET 46\", Blank Schedule Type Limits Name input -- will not be validated.\n   ** Warning ** ProcessScheduleInput: Schedule:Year=\"SCHEDULE RULESET 47\", Blank Schedule Type Limits Name input -- will not be validated.\n   ** Warning ** ProcessScheduleInput: Schedule:Year=\"SCHEDULE RULESET 48\", Blank Schedule Type Limits Name input -- will not be validated.\n   ** Warning ** ProcessScheduleInput: Schedule:Year=\"SCHEDULE RULESET 49\", Blank Schedule Type Limits Name input -- will not be validated.\n   ** Warning ** ProcessScheduleInput: Schedule:Year=\"SCHEDULE RULESET 5\", Blank Schedule Type Limits Name input -- will not be validated.\n   ** Warning ** ProcessScheduleInput: Schedule:Year=\"SCHEDULE RULESET 50\", Blank Schedule Type Limits Name input -- will not be validated.\n   ** Warning ** ProcessScheduleInput: Schedule:Year=\"SCHEDULE RULESET 51\", Blank Schedule Type Limits Name input -- will not be validated.\n   ** Warning ** ProcessScheduleInput: Schedule:Year=\"SCHEDULE RULESET 52\", Blank Schedule Type Limits Name input -- will not be validated.\n   ** Warning ** ProcessScheduleInput: Schedule:Year=\"SCHEDULE RULESET 53\", Blank Schedule Type Limits Name input -- will not be validated.\n   ** Warning ** ProcessScheduleInput: Schedule:Year=\"SCHEDULE RULESET 54\", Blank Schedule Type Limits Name input -- will not be validated.\n   ** Warning ** ProcessScheduleInput: Schedule:Year=\"SCHEDULE RULESET 55\", Blank Schedule Type Limits Name input -- will not be validated.\n   ** Warning ** ProcessScheduleInput: Schedule:Year=\"SCHEDULE RULESET 56\", Blank Schedule Type Limits Name input -- will not be validated.\n   ** Warning ** ProcessScheduleInput: Schedule:Year=\"SCHEDULE RULESET 57\", Blank Schedule Type Limits Name input -- will not be validated.\n   ** Warning ** ProcessScheduleInput: Schedule:Year=\"SCHEDULE RULESET 58\", Blank Schedule Type Limits Name input -- will not be validated.\n   ** Warning ** ProcessScheduleInput: Schedule:Year=\"SCHEDULE RULESET 59\", Blank Schedule Type Limits Name input -- will not be validated.\n   ** Warning ** ProcessScheduleInput: Schedule:Year=\"SCHEDULE RULESET 6\", Blank Schedule Type Limits Name input -- will not be validated.\n   ** Warning ** ProcessScheduleInput: Schedule:Year=\"SCHEDULE RULESET 60\", Blank Schedule Type Limits Name input -- will not be validated.\n   ** Warning ** ProcessScheduleInput: Schedule:Year=\"SCHEDULE RULESET 61\", Blank Schedule Type Limits Name input -- will not be validated.\n   ** Warning ** ProcessScheduleInput: Schedule:Year=\"SCHEDULE RULESET 62\", Blank Schedule Type Limits Name input -- will not be validated.\n   ** Warning ** ProcessScheduleInput: Schedule:Year=\"SCHEDULE RULESET 63\", Blank Schedule Type Limits Name input -- will not be validated.\n   ** Warning ** ProcessScheduleInput: Schedule:Year=\"SCHEDULE RULESET 64\", Blank Schedule Type Limits Name input -- will not be validated.\n   ** Warning ** ProcessScheduleInput: Schedule:Year=\"SCHEDULE RULESET 65\", Blank Schedule Type Limits Name input -- will not be validated.\n   ** Warning ** ProcessScheduleInput: Schedule:Year=\"SCHEDULE RULESET 66\", Blank Schedule Type Limits Name input -- will not be validated.\n   ** Warning ** ProcessScheduleInput: Schedule:Year=\"SCHEDULE RULESET 67\", Blank Schedule Type Limits Name input -- will not be validated.\n   ** Warning ** ProcessScheduleInput: Schedule:Year=\"SCHEDULE RULESET 68\", Blank Schedule Type Limits Name input -- will not be validated.\n   ** Warning ** ProcessScheduleInput: Schedule:Year=\"SCHEDULE RULESET 69\", Blank Schedule Type Limits Name input -- will not be validated.\n   ** Warning ** ProcessScheduleInput: Schedule:Year=\"SCHEDULE RULESET 7\", Blank Schedule Type Limits Name input -- will not be validated.\n   ** Warning ** ProcessScheduleInput: Schedule:Year=\"SCHEDULE RULESET 70\", Blank Schedule Type Limits Name input -- will not be validated.\n   ** Warning ** ProcessScheduleInput: Schedule:Year=\"SCHEDULE RULESET 71\", Blank Schedule Type Limits Name input -- will not be validated.\n   ** Warning ** ProcessScheduleInput: Schedule:Year=\"SCHEDULE RULESET 72\", Blank Schedule Type Limits Name input -- will not be validated.\n   ** Warning ** ProcessScheduleInput: Schedule:Year=\"SCHEDULE RULESET 73\", Blank Schedule Type Limits Name input -- will not be validated.\n   ** Warning ** ProcessScheduleInput: Schedule:Year=\"SCHEDULE RULESET 74\", Blank Schedule Type Limits Name input -- will not be validated.\n   ** Warning ** ProcessScheduleInput: Schedule:Year=\"SCHEDULE RULESET 8\", Blank Schedule Type Limits Name input -- will not be validated.\n   ** Warning ** ProcessScheduleInput: Schedule:Year=\"SCHEDULE RULESET 9\", Blank Schedule Type Limits Name input -- will not be validated.\n   ** Warning ** ProcessScheduleInput: Schedule:Constant=\"ALWAYS OFF DISCRETE\", Blank Schedule Type Limits Name input -- will not be validated.\n   ** Warning ** ProcessScheduleInput: Schedule:Constant=\"ALWAYS ON CONTINUOUS\", Blank Schedule Type Limits Name input -- will not be validated.\n   ** Warning ** CheckUsedConstructions: There are 26 nominally unused constructions in input.\n   **   ~~~   ** For explicit details on each unused construction, use Output:Diagnostics,DisplayExtraWarnings;\n   ************* Beginning System Sizing Calculations\n   ** Warning ** GetDXCoils: Coil:Cooling:DX:SingleSpeed=\"COIL COOLING DX SINGLE SPEED 24 7KBTU/HR 11.0EER\", invalid\n   **   ~~~   ** ...Part Load Fraction Correlation Curve Name = DXCOOL-NECB2011-REF-COOLPLFFPLR 16 has out of range value.\n   **   ~~~   ** ...Curve maximum must be <= 1.0, curve max at PLR = 0.99 is 1.015\n   **   ~~~   ** ...Setting curve maximum to 1.0 and simulation continues.\n   ** Warning ** GetDXCoils: Coil:Cooling:DX:SingleSpeed=\"COIL COOLING DX SINGLE SPEED 22 5KBTU/HR 11.0EER\", invalid\n   **   ~~~   ** ...Part Load Fraction Correlation Curve Name = DXCOOL-NECB2011-REF-COOLPLFFPLR 14 has out of range value.\n   **   ~~~   ** ...Curve maximum must be <= 1.0, curve max at PLR = 0.99 is 1.015\n   **   ~~~   ** ...Setting curve maximum to 1.0 and simulation continues.\n   ** Warning ** GetDXCoils: Coil:Cooling:DX:SingleSpeed=\"COIL COOLING DX SINGLE SPEED 21 5KBTU/HR 11.0EER\", invalid\n   **   ~~~   ** ...Part Load Fraction Correlation Curve Name = DXCOOL-NECB2011-REF-COOLPLFFPLR 13 has out of range value.\n   **   ~~~   ** ...Curve maximum must be <= 1.0, curve max at PLR = 0.99 is 1.015\n   **   ~~~   ** ...Setting curve maximum to 1.0 and simulation continues.\n   ** Warning ** GetDXCoils: Coil:Cooling:DX:SingleSpeed=\"COIL COOLING DX SINGLE SPEED 23 10KBTU/HR 10.4EER\", invalid\n   **   ~~~   ** ...Part Load Fraction Correlation Curve Name = DXCOOL-NECB2011-REF-COOLPLFFPLR 15 has out of range value.\n   **   ~~~   ** ...Curve maximum must be <= 1.0, curve max at PLR = 0.99 is 1.015\n   **   ~~~   ** ...Setting curve maximum to 1.0 and simulation continues.\n   ** Warning ** GetDXCoils: Coil:Cooling:DX:SingleSpeed=\"COIL COOLING DX SINGLE SPEED 20 10KBTU/HR 10.4EER\", invalid\n   **   ~~~   ** ...Part Load Fraction Correlation Curve Name = DXCOOL-NECB2011-REF-COOLPLFFPLR 12 has out of range value.\n   **   ~~~   ** ...Curve maximum must be <= 1.0, curve max at PLR = 0.99 is 1.015\n   **   ~~~   ** ...Setting curve maximum to 1.0 and simulation continues.\n   ** Warning ** GetDXCoils: Coil:Cooling:DX:SingleSpeed=\"COIL COOLING DX SINGLE SPEED 25 9KBTU/HR 10.6EER\", invalid\n   **   ~~~   ** ...Part Load Fraction Correlation Curve Name = DXCOOL-NECB2011-REF-COOLPLFFPLR 17 has out of range value.\n   **   ~~~   ** ...Curve maximum must be <= 1.0, curve max at PLR = 0.99 is 1.015\n   **   ~~~   ** ...Setting curve maximum to 1.0 and simulation continues.\n   ** Warning ** GetDXCoils: Coil:Cooling:DX:SingleSpeed=\"COIL COOLING DX SINGLE SPEED 26 9KBTU/HR 10.5EER\", invalid\n   **   ~~~   ** ...Part Load Fraction Correlation Curve Name = DXCOOL-NECB2011-REF-COOLPLFFPLR 18 has out of range value.\n   **   ~~~   ** ...Curve maximum must be <= 1.0, curve max at PLR = 0.99 is 1.015\n   **   ~~~   ** ...Setting curve maximum to 1.0 and simulation continues.\n   ** Warning ** GetDXCoils: Coil:Cooling:DX:SingleSpeed=\"COIL COOLING DX SINGLE SPEED 27 11KBTU/HR 10.1EER\", invalid\n   **   ~~~   ** ...Part Load Fraction Correlation Curve Name = DXCOOL-NECB2011-REF-COOLPLFFPLR 19 has out of range value.\n   **   ~~~   ** ...Curve maximum must be <= 1.0, curve max at PLR = 0.99 is 1.015\n   **   ~~~   ** ...Setting curve maximum to 1.0 and simulation continues.\n   ** Warning ** GetDXCoils: Coil:Cooling:DX:SingleSpeed=\"COIL COOLING DX SINGLE SPEED 6 7KBTU/HR 10.9EER\", invalid\n   **   ~~~   ** ...Part Load Fraction Correlation Curve Name = DXCOOL-NECB2011-REF-COOLPLFFPLR 24 has out of range value.\n   **   ~~~   ** ...Curve maximum must be <= 1.0, curve max at PLR = 0.99 is 1.015\n   **   ~~~   ** ...Setting curve maximum to 1.0 and simulation continues.\n   ** Warning ** GetDXCoils: Coil:Cooling:DX:SingleSpeed=\"COIL COOLING DX SINGLE SPEED 4 6KBTU/HR 11.0EER\", invalid\n   **   ~~~   ** ...Part Load Fraction Correlation Curve Name = DXCOOL-NECB2011-REF-COOLPLFFPLR 22 has out of range value.\n   **   ~~~   ** ...Curve maximum must be <= 1.0, curve max at PLR = 0.99 is 1.015\n   **   ~~~   ** ...Setting curve maximum to 1.0 and simulation continues.\n   ** Warning ** GetDXCoils: Coil:Cooling:DX:SingleSpeed=\"COIL COOLING DX SINGLE SPEED 3 6KBTU/HR 11.0EER\", invalid\n   **   ~~~   ** ...Part Load Fraction Correlation Curve Name = DXCOOL-NECB2011-REF-COOLPLFFPLR 21 has out of range value.\n   **   ~~~   ** ...Curve maximum must be <= 1.0, curve max at PLR = 0.99 is 1.015\n   **   ~~~   ** ...Setting curve maximum to 1.0 and simulation continues.\n   ** Warning ** GetDXCoils: Coil:Cooling:DX:SingleSpeed=\"COIL COOLING DX SINGLE SPEED 2 11KBTU/HR 10.2EER\", invalid\n   **   ~~~   ** ...Part Load Fraction Correlation Curve Name = DXCOOL-NECB2011-REF-COOLPLFFPLR 11 has out of range value.\n   **   ~~~   ** ...Curve maximum must be <= 1.0, curve max at PLR = 0.99 is 1.015\n   **   ~~~   ** ...Setting curve maximum to 1.0 and simulation continues.\n   ** Warning ** GetDXCoils: Coil:Cooling:DX:SingleSpeed=\"COIL COOLING DX SINGLE SPEED 5 12KBTU/HR 10.0EER\", invalid\n   **   ~~~   ** ...Part Load Fraction Correlation Curve Name = DXCOOL-NECB2011-REF-COOLPLFFPLR 23 has out of range value.\n   **   ~~~   ** ...Curve maximum must be <= 1.0, curve max at PLR = 0.99 is 1.015\n   **   ~~~   ** ...Setting curve maximum to 1.0 and simulation continues.\n   ** Warning ** GetDXCoils: Coil:Cooling:DX:SingleSpeed=\"COIL COOLING DX SINGLE SPEED 7 10KBTU/HR 10.4EER\", invalid\n   **   ~~~   ** ...Part Load Fraction Correlation Curve Name = DXCOOL-NECB2011-REF-COOLPLFFPLR 25 has out of range value.\n   **   ~~~   ** ...Curve maximum must be <= 1.0, curve max at PLR = 0.99 is 1.015\n   **   ~~~   ** ...Setting curve maximum to 1.0 and simulation continues.\n   ** Warning ** GetDXCoils: Coil:Cooling:DX:SingleSpeed=\"COIL COOLING DX SINGLE SPEED 9 10KBTU/HR 10.3EER\", invalid\n   **   ~~~   ** ...Part Load Fraction Correlation Curve Name = DXCOOL-NECB2011-REF-COOLPLFFPLR 27 has out of range value.\n   **   ~~~   ** ...Curve maximum must be <= 1.0, curve max at PLR = 0.99 is 1.015\n   **   ~~~   ** ...Setting curve maximum to 1.0 and simulation continues.\n   ** Warning ** GetDXCoils: Coil:Cooling:DX:SingleSpeed=\"COIL COOLING DX SINGLE SPEED 8 12KBTU/HR 9.9EER\", invalid\n   **   ~~~   ** ...Part Load Fraction Correlation Curve Name = DXCOOL-NECB2011-REF-COOLPLFFPLR 26 has out of range value.\n   **   ~~~   ** ...Curve maximum must be <= 1.0, curve max at PLR = 0.99 is 1.015\n   **   ~~~   ** ...Setting curve maximum to 1.0 and simulation continues.\n   ** Warning ** GetDXCoils: Coil:Cooling:DX:SingleSpeed=\"COIL COOLING DX SINGLE SPEED 10 13KBTU/HR 9.8EER\", invalid\n   **   ~~~   ** ...Part Load Fraction Correlation Curve Name = DXCOOL-NECB2011-REF-COOLPLFFPLR 1 has out of range value.\n   **   ~~~   ** ...Curve maximum must be <= 1.0, curve max at PLR = 0.99 is 1.015\n   **   ~~~   ** ...Setting curve maximum to 1.0 and simulation continues.\n   ** Warning ** GetDXCoils: Coil:Cooling:DX:SingleSpeed=\"COIL COOLING DX SINGLE SPEED 15 11KBTU/HR 10.2EER\", invalid\n   **   ~~~   ** ...Part Load Fraction Correlation Curve Name = DXCOOL-NECB2011-REF-COOLPLFFPLR 6 has out of range value.\n   **   ~~~   ** ...Curve maximum must be <= 1.0, curve max at PLR = 0.99 is 1.015\n   **   ~~~   ** ...Setting curve maximum to 1.0 and simulation continues.\n   ** Warning ** GetDXCoils: Coil:Cooling:DX:SingleSpeed=\"COIL COOLING DX SINGLE SPEED 12 9KBTU/HR 10.6EER\", invalid\n   **   ~~~   ** ...Part Load Fraction Correlation Curve Name = DXCOOL-NECB2011-REF-COOLPLFFPLR 3 has out of range value.\n   **   ~~~   ** ...Curve maximum must be <= 1.0, curve max at PLR = 0.99 is 1.015\n   **   ~~~   ** ...Setting curve maximum to 1.0 and simulation continues.\n   ** Warning ** GetDXCoils: Coil:Cooling:DX:SingleSpeed=\"COIL COOLING DX SINGLE SPEED 13 9KBTU/HR 10.6EER\", invalid\n   **   ~~~   ** ...Part Load Fraction Correlation Curve Name = DXCOOL-NECB2011-REF-COOLPLFFPLR 4 has out of range value.\n   **   ~~~   ** ...Curve maximum must be <= 1.0, curve max at PLR = 0.99 is 1.015\n   **   ~~~   ** ...Setting curve maximum to 1.0 and simulation continues.\n   ** Warning ** GetDXCoils: Coil:Cooling:DX:SingleSpeed=\"COIL COOLING DX SINGLE SPEED 14 12KBTU/HR 10.0EER\", invalid\n   **   ~~~   ** ...Part Load Fraction Correlation Curve Name = DXCOOL-NECB2011-REF-COOLPLFFPLR 5 has out of range value.\n   **   ~~~   ** ...Curve maximum must be <= 1.0, curve max at PLR = 0.99 is 1.015\n   **   ~~~   ** ...Setting curve maximum to 1.0 and simulation continues.\n   ** Warning ** GetDXCoils: Coil:Cooling:DX:SingleSpeed=\"COIL COOLING DX SINGLE SPEED 11 12KBTU/HR 9.9EER\", invalid\n   **   ~~~   ** ...Part Load Fraction Correlation Curve Name = DXCOOL-NECB2011-REF-COOLPLFFPLR 2 has out of range value.\n   **   ~~~   ** ...Curve maximum must be <= 1.0, curve max at PLR = 0.99 is 1.015\n   **   ~~~   ** ...Setting curve maximum to 1.0 and simulation continues.\n   ** Warning ** GetDXCoils: Coil:Cooling:DX:SingleSpeed=\"COIL COOLING DX SINGLE SPEED 16 13KBTU/HR 9.7EER\", invalid\n   **   ~~~   ** ...Part Load Fraction Correlation Curve Name = DXCOOL-NECB2011-REF-COOLPLFFPLR 7 has out of range value.\n   **   ~~~   ** ...Curve maximum must be <= 1.0, curve max at PLR = 0.99 is 1.015\n   **   ~~~   ** ...Setting curve maximum to 1.0 and simulation continues.\n   ** Warning ** GetDXCoils: Coil:Cooling:DX:SingleSpeed=\"COIL COOLING DX SINGLE SPEED 19 13KBTU/HR 9.7EER\", invalid\n   **   ~~~   ** ...Part Load Fraction Correlation Curve Name = DXCOOL-NECB2011-REF-COOLPLFFPLR 10 has out of range value.\n   **   ~~~   ** ...Curve maximum must be <= 1.0, curve max at PLR = 0.99 is 1.015\n   **   ~~~   ** ...Setting curve maximum to 1.0 and simulation continues.\n   ** Warning ** GetDXCoils: Coil:Cooling:DX:SingleSpeed=\"COIL COOLING DX SINGLE SPEED 18 15KBTU/HR 9.4EER\", invalid\n   **   ~~~   ** ...Part Load Fraction Correlation Curve Name = DXCOOL-NECB2011-REF-COOLPLFFPLR 9 has out of range value.\n   **   ~~~   ** ...Curve maximum must be <= 1.0, curve max at PLR = 0.99 is 1.015\n   **   ~~~   ** ...Setting curve maximum to 1.0 and simulation continues.\n   ** Warning ** GetDXCoils: Coil:Cooling:DX:SingleSpeed=\"COIL COOLING DX SINGLE SPEED 17 15KBTU/HR 9.3EER\", invalid\n   **   ~~~   ** ...Part Load Fraction Correlation Curve Name = DXCOOL-NECB2011-REF-COOLPLFFPLR 8 has out of range value.\n   **   ~~~   ** ...Curve maximum must be <= 1.0, curve max at PLR = 0.99 is 1.015\n   **   ~~~   ** ...Setting curve maximum to 1.0 and simulation continues.\n   ** Warning ** GetDXCoils: Coil:Cooling:DX:SingleSpeed=\"COIL COOLING DX SINGLE SPEED 1 59KBTU/HR 14.0SEER\", invalid\n   **   ~~~   ** ...Part Load Fraction Correlation Curve Name = DXCOOL-NECB2011-REF-COOLPLFFPLR has out of range value.\n   **   ~~~   ** ...Curve maximum must be <= 1.0, curve max at PLR = 0.99 is 1.015\n   **   ~~~   ** ...Setting curve maximum to 1.0 and simulation continues.\n   ** Warning ** GetDXCoils: Coil:Cooling:DX:SingleSpeed=\"COIL COOLING DX SINGLE SPEED 28 18KBTU/HR 14.0SEER\", invalid\n   **   ~~~   ** ...Part Load Fraction Correlation Curve Name = DXCOOL-NECB2011-REF-COOLPLFFPLR 20 has out of range value.\n   **   ~~~   ** ...Curve maximum must be <= 1.0, curve max at PLR = 0.99 is 1.015\n   **   ~~~   ** ...Setting curve maximum to 1.0 and simulation continues.\n   ************* Beginning Plant Sizing Calculations\n   ** Warning ** The Standard Ratings is calculated for Coil:Cooling:DX:SingleSpeed = COIL COOLING DX SINGLE SPEED 24 7KBTU/HR 11.0EER but not at the AHRI test condition due to curve out of bound.\n   **   ~~~   **  Review the Standard Ratings calculations in the Engineering Reference for this coil type. Also, use Output:Diagnostics, DisplayExtraWarnings for further guidance.\n   ** Warning ** The Standard Ratings is calculated for Coil:Cooling:DX:SingleSpeed = COIL COOLING DX SINGLE SPEED 22 5KBTU/HR 11.0EER but not at the AHRI test condition due to curve out of bound.\n   **   ~~~   **  Review the Standard Ratings calculations in the Engineering Reference for this coil type. Also, use Output:Diagnostics, DisplayExtraWarnings for further guidance.\n   ** Warning ** The Standard Ratings is calculated for Coil:Cooling:DX:SingleSpeed = COIL COOLING DX SINGLE SPEED 21 5KBTU/HR 11.0EER but not at the AHRI test condition due to curve out of bound.\n   **   ~~~   **  Review the Standard Ratings calculations in the Engineering Reference for this coil type. Also, use Output:Diagnostics, DisplayExtraWarnings for further guidance.\n   ** Warning ** The Standard Ratings is calculated for Coil:Cooling:DX:SingleSpeed = COIL COOLING DX SINGLE SPEED 23 10KBTU/HR 10.4EER but not at the AHRI test condition due to curve out of bound.\n   **   ~~~   **  Review the Standard Ratings calculations in the Engineering Reference for this coil type. Also, use Output:Diagnostics, DisplayExtraWarnings for further guidance.\n   ** Warning ** The Standard Ratings is calculated for Coil:Cooling:DX:SingleSpeed = COIL COOLING DX SINGLE SPEED 20 10KBTU/HR 10.4EER but not at the AHRI test condition due to curve out of bound.\n   **   ~~~   **  Review the Standard Ratings calculations in the Engineering Reference for this coil type. Also, use Output:Diagnostics, DisplayExtraWarnings for further guidance.\n   ** Warning ** The Standard Ratings is calculated for Coil:Cooling:DX:SingleSpeed = COIL COOLING DX SINGLE SPEED 25 9KBTU/HR 10.6EER but not at the AHRI test condition due to curve out of bound.\n   **   ~~~   **  Review the Standard Ratings calculations in the Engineering Reference for this coil type. Also, use Output:Diagnostics, DisplayExtraWarnings for further guidance.\n   ** Warning ** The Standard Ratings is calculated for Coil:Cooling:DX:SingleSpeed = COIL COOLING DX SINGLE SPEED 26 9KBTU/HR 10.5EER but not at the AHRI test condition due to curve out of bound.\n   **   ~~~   **  Review the Standard Ratings calculations in the Engineering Reference for this coil type. Also, use Output:Diagnostics, DisplayExtraWarnings for further guidance.\n   ** Warning ** The Standard Ratings is calculated for Coil:Cooling:DX:SingleSpeed = COIL COOLING DX SINGLE SPEED 27 11KBTU/HR 10.1EER but not at the AHRI test condition due to curve out of bound.\n   **   ~~~   **  Review the Standard Ratings calculations in the Engineering Reference for this coil type. Also, use Output:Diagnostics, DisplayExtraWarnings for further guidance.\n   ** Warning ** The Standard Ratings is calculated for Coil:Cooling:DX:SingleSpeed = COIL COOLING DX SINGLE SPEED 6 7KBTU/HR 10.9EER but not at the AHRI test condition due to curve out of bound.\n   **   ~~~   **  Review the Standard Ratings calculations in the Engineering Reference for this coil type. Also, use Output:Diagnostics, DisplayExtraWarnings for further guidance.\n   ** Warning ** The Standard Ratings is calculated for Coil:Cooling:DX:SingleSpeed = COIL COOLING DX SINGLE SPEED 4 6KBTU/HR 11.0EER but not at the AHRI test condition due to curve out of bound.\n   **   ~~~   **  Review the Standard Ratings calculations in the Engineering Reference for this coil type. Also, use Output:Diagnostics, DisplayExtraWarnings for further guidance.\n   ** Warning ** The Standard Ratings is calculated for Coil:Cooling:DX:SingleSpeed = COIL COOLING DX SINGLE SPEED 3 6KBTU/HR 11.0EER but not at the AHRI test condition due to curve out of bound.\n   **   ~~~   **  Review the Standard Ratings calculations in the Engineering Reference for this coil type. Also, use Output:Diagnostics, DisplayExtraWarnings for further guidance.\n   ** Warning ** The Standard Ratings is calculated for Coil:Cooling:DX:SingleSpeed = COIL COOLING DX SINGLE SPEED 2 11KBTU/HR 10.2EER but not at the AHRI test condition due to curve out of bound.\n   **   ~~~   **  Review the Standard Ratings calculations in the Engineering Reference for this coil type. Also, use Output:Diagnostics, DisplayExtraWarnings for further guidance.\n   ** Warning ** The Standard Ratings is calculated for Coil:Cooling:DX:SingleSpeed = COIL COOLING DX SINGLE SPEED 5 12KBTU/HR 10.0EER but not at the AHRI test condition due to curve out of bound.\n   **   ~~~   **  Review the Standard Ratings calculations in the Engineering Reference for this coil type. Also, use Output:Diagnostics, DisplayExtraWarnings for further guidance.\n   ** Warning ** The Standard Ratings is calculated for Coil:Cooling:DX:SingleSpeed = COIL COOLING DX SINGLE SPEED 7 10KBTU/HR 10.4EER but not at the AHRI test condition due to curve out of bound.\n   **   ~~~   **  Review the Standard Ratings calculations in the Engineering Reference for this coil type. Also, use Output:Diagnostics, DisplayExtraWarnings for further guidance.\n   ** Warning ** The Standard Ratings is calculated for Coil:Cooling:DX:SingleSpeed = COIL COOLING DX SINGLE SPEED 9 10KBTU/HR 10.3EER but not at the AHRI test condition due to curve out of bound.\n   **   ~~~   **  Review the Standard Ratings calculations in the Engineering Reference for this coil type. Also, use Output:Diagnostics, DisplayExtraWarnings for further guidance.\n   ** Warning ** The Standard Ratings is calculated for Coil:Cooling:DX:SingleSpeed = COIL COOLING DX SINGLE SPEED 8 12KBTU/HR 9.9EER but not at the AHRI test condition due to curve out of bound.\n   **   ~~~   **  Review the Standard Ratings calculations in the Engineering Reference for this coil type. Also, use Output:Diagnostics, DisplayExtraWarnings for further guidance.\n   ** Warning ** The Standard Ratings is calculated for Coil:Cooling:DX:SingleSpeed = COIL COOLING DX SINGLE SPEED 10 13KBTU/HR 9.8EER but not at the AHRI test condition due to curve out of bound.\n   **   ~~~   **  Review the Standard Ratings calculations in the Engineering Reference for this coil type. Also, use Output:Diagnostics, DisplayExtraWarnings for further guidance.\n   ** Warning ** The Standard Ratings is calculated for Coil:Cooling:DX:SingleSpeed = COIL COOLING DX SINGLE SPEED 15 11KBTU/HR 10.2EER but not at the AHRI test condition due to curve out of bound.\n   **   ~~~   **  Review the Standard Ratings calculations in the Engineering Reference for this coil type. Also, use Output:Diagnostics, DisplayExtraWarnings for further guidance.\n   ** Warning ** The Standard Ratings is calculated for Coil:Cooling:DX:SingleSpeed = COIL COOLING DX SINGLE SPEED 12 9KBTU/HR 10.6EER but not at the AHRI test condition due to curve out of bound.\n   **   ~~~   **  Review the Standard Ratings calculations in the Engineering Reference for this coil type. Also, use Output:Diagnostics, DisplayExtraWarnings for further guidance.\n   ** Warning ** The Standard Ratings is calculated for Coil:Cooling:DX:SingleSpeed = COIL COOLING DX SINGLE SPEED 13 9KBTU/HR 10.6EER but not at the AHRI test condition due to curve out of bound.\n   **   ~~~   **  Review the Standard Ratings calculations in the Engineering Reference for this coil type. Also, use Output:Diagnostics, DisplayExtraWarnings for further guidance.\n   ** Warning ** The Standard Ratings is calculated for Coil:Cooling:DX:SingleSpeed = COIL COOLING DX SINGLE SPEED 14 12KBTU/HR 10.0EER but not at the AHRI test condition due to curve out of bound.\n   **   ~~~   **  Review the Standard Ratings calculations in the Engineering Reference for this coil type. Also, use Output:Diagnostics, DisplayExtraWarnings for further guidance.\n   ** Warning ** The Standard Ratings is calculated for Coil:Cooling:DX:SingleSpeed = COIL COOLING DX SINGLE SPEED 11 12KBTU/HR 9.9EER but not at the AHRI test condition due to curve out of bound.\n   **   ~~~   **  Review the Standard Ratings calculations in the Engineering Reference for this coil type. Also, use Output:Diagnostics, DisplayExtraWarnings for further guidance.\n   ** Warning ** The Standard Ratings is calculated for Coil:Cooling:DX:SingleSpeed = COIL COOLING DX SINGLE SPEED 16 13KBTU/HR 9.7EER but not at the AHRI test condition due to curve out of bound.\n   **   ~~~   **  Review the Standard Ratings calculations in the Engineering Reference for this coil type. Also, use Output:Diagnostics, DisplayExtraWarnings for further guidance.\n   ** Warning ** The Standard Ratings is calculated for Coil:Cooling:DX:SingleSpeed = COIL COOLING DX SINGLE SPEED 19 13KBTU/HR 9.7EER but not at the AHRI test condition due to curve out of bound.\n   **   ~~~   **  Review the Standard Ratings calculations in the Engineering Reference for this coil type. Also, use Output:Diagnostics, DisplayExtraWarnings for further guidance.\n   ** Warning ** The Standard Ratings is calculated for Coil:Cooling:DX:SingleSpeed = COIL COOLING DX SINGLE SPEED 18 15KBTU/HR 9.4EER but not at the AHRI test condition due to curve out of bound.\n   **   ~~~   **  Review the Standard Ratings calculations in the Engineering Reference for this coil type. Also, use Output:Diagnostics, DisplayExtraWarnings for further guidance.\n   ** Warning ** The Standard Ratings is calculated for Coil:Cooling:DX:SingleSpeed = COIL COOLING DX SINGLE SPEED 17 15KBTU/HR 9.3EER but not at the AHRI test condition due to curve out of bound.\n   **   ~~~   **  Review the Standard Ratings calculations in the Engineering Reference for this coil type. Also, use Output:Diagnostics, DisplayExtraWarnings for further guidance.\n   ** Warning ** The Standard Ratings is calculated for Coil:Cooling:DX:SingleSpeed = COIL COOLING DX SINGLE SPEED 1 59KBTU/HR 14.0SEER but not at the AHRI test condition due to curve out of bound.\n   **   ~~~   **  Review the Standard Ratings calculations in the Engineering Reference for this coil type. Also, use Output:Diagnostics, DisplayExtraWarnings for further guidance.\n   ** Warning ** The Standard Ratings is calculated for Coil:Cooling:DX:SingleSpeed = COIL COOLING DX SINGLE SPEED 28 18KBTU/HR 14.0SEER but not at the AHRI test condition due to curve out of bound.\n   **   ~~~   **  Review the Standard Ratings calculations in the Engineering Reference for this coil type. Also, use Output:Diagnostics, DisplayExtraWarnings for further guidance.\n   ** Warning ** Output:Meter: invalid Name=\"DISTRICTCOOLING:FACILITY\" - not found.\n   ** Warning ** Output:Meter: invalid Name=\"DISTRICTHEATING:FACILITY\" - not found.\n   ** Warning ** Output:Meter:MeterFileOnly requested for \"Electricity:Facility\" (TimeStep), already on \"Output:Meter\". Will report to both eplusout.eso and eplusout.mtr\n   ************* Testing Individual Branch Integrity\n   ************* All Branches passed integrity testing\n   ************* Testing Individual Supply Air Path Integrity\n   ************* All Supply Air Paths passed integrity testing\n   ************* Testing Individual Return Air Path Integrity\n   ************* All Return Air Paths passed integrity testing\n   ************* No node connection errors were found.\n   ************* Beginning Simulation\n   ** Warning ** CalcDoe2DXCoil: Coil:Cooling:DX:SingleSpeed \"COIL COOLING DX SINGLE SPEED 25 9KBTU/HR 10.6EER\" - Air-cooled condenser inlet dry-bulb temperature below 0 C. Outdoor dry-bulb temperature = -10.55\n   **   ~~~   **  ... Occurrence info = RUN PERIOD 1, 01/02 11:08 - 11:15\n   **   ~~~   ** ... Operation at low ambient temperatures may require special performance curves.\n   ** Warning ** CalcDoe2DXCoil: Coil:Cooling:DX:SingleSpeed \"COIL COOLING DX SINGLE SPEED 26 9KBTU/HR 10.5EER\" - Air-cooled condenser inlet dry-bulb temperature below 0 C. Outdoor dry-bulb temperature = -10.55\n   **   ~~~   **  ... Occurrence info = RUN PERIOD 1, 01/02 11:08 - 11:15\n   **   ~~~   ** ... Operation at low ambient temperatures may require special performance curves.\n   ** Warning ** CalcDoe2DXCoil: Coil:Cooling:DX:SingleSpeed \"COIL COOLING DX SINGLE SPEED 27 11KBTU/HR 10.1EER\" - Air-cooled condenser inlet dry-bulb temperature below 0 C. Outdoor dry-bulb temperature = -9.45\n   **   ~~~   **  ... Occurrence info = RUN PERIOD 1, 01/02 11:38 - 11:45\n   **   ~~~   ** ... Operation at low ambient temperatures may require special performance curves.\n   ** Warning ** CalcDoe2DXCoil: Coil:Cooling:DX:SingleSpeed \"COIL COOLING DX SINGLE SPEED 7 10KBTU/HR 10.4EER\" - Air-cooled condenser inlet dry-bulb temperature below 0 C. Outdoor dry-bulb temperature = -8.90\n   **   ~~~   **  ... Occurrence info = RUN PERIOD 1, 01/02 11:45 - 11:52\n   **   ~~~   ** ... Operation at low ambient temperatures may require special performance curves.\n   ** Warning ** CalcDoe2DXCoil: Coil:Cooling:DX:SingleSpeed \"COIL COOLING DX SINGLE SPEED 9 10KBTU/HR 10.3EER\" - Air-cooled condenser inlet dry-bulb temperature below 0 C. Outdoor dry-bulb temperature = -8.90\n   **   ~~~   **  ... Occurrence info = RUN PERIOD 1, 01/02 11:45 - 11:52\n   **   ~~~   ** ... Operation at low ambient temperatures may require special performance curves.\n   ** Warning ** CalcDoe2DXCoil: Coil:Cooling:DX:SingleSpeed \"COIL COOLING DX SINGLE SPEED 8 12KBTU/HR 9.9EER\" - Air-cooled condenser inlet dry-bulb temperature below 0 C. Outdoor dry-bulb temperature = -8.90\n   **   ~~~   **  ... Occurrence info = RUN PERIOD 1, 01/02 11:53 - 12:00\n   **   ~~~   ** ... Operation at low ambient temperatures may require special performance curves.\n   ** Warning ** CalcDoe2DXCoil: Coil:Cooling:DX:SingleSpeed \"COIL COOLING DX SINGLE SPEED 10 13KBTU/HR 9.8EER\" - Air-cooled condenser inlet dry-bulb temperature below 0 C. Outdoor dry-bulb temperature = -8.05\n   **   ~~~   **  ... Occurrence info = RUN PERIOD 1, 01/02 12:15 - 12:22\n   **   ~~~   ** ... Operation at low ambient temperatures may require special performance curves.\n   ** Warning ** CalcDoe2DXCoil: Coil:Cooling:DX:SingleSpeed \"COIL COOLING DX SINGLE SPEED 19 13KBTU/HR 9.7EER\" - Air-cooled condenser inlet dry-bulb temperature below 0 C. Outdoor dry-bulb temperature = -8.05\n   **   ~~~   **  ... Occurrence info = RUN PERIOD 1, 01/02 12:15 - 12:22\n   **   ~~~   ** ... Operation at low ambient temperatures may require special performance curves.\n   ** Warning ** CalcDoe2DXCoil: Coil:Cooling:DX:SingleSpeed \"COIL COOLING DX SINGLE SPEED 16 13KBTU/HR 9.7EER\" - Air-cooled condenser inlet dry-bulb temperature below 0 C. Outdoor dry-bulb temperature = -8.05\n   **   ~~~   **  ... Occurrence info = RUN PERIOD 1, 01/02 12:23 - 12:30\n   **   ~~~   ** ... Operation at low ambient temperatures may require special performance curves.\n   ** Warning ** CalcDoe2DXCoil: Coil:Cooling:DX:SingleSpeed \"COIL COOLING DX SINGLE SPEED 18 15KBTU/HR 9.4EER\" - Air-cooled condenser inlet dry-bulb temperature below 0 C. Outdoor dry-bulb temperature = -7.63\n   **   ~~~   **  ... Occurrence info = RUN PERIOD 1, 01/02 12:30 - 12:38\n   **   ~~~   ** ... Operation at low ambient temperatures may require special performance curves.\n   ** Warning ** CalcDoe2DXCoil: Coil:Cooling:DX:SingleSpeed \"COIL COOLING DX SINGLE SPEED 17 15KBTU/HR 9.3EER\" - Air-cooled condenser inlet dry-bulb temperature below 0 C. Outdoor dry-bulb temperature = -7.20\n   **   ~~~   **  ... Occurrence info = RUN PERIOD 1, 01/02 13:00 - 13:15\n   **   ~~~   ** ... Operation at low ambient temperatures may require special performance curves.\n   ** Warning ** CalcDoe2DXCoil: Coil:Cooling:DX:SingleSpeed \"COIL COOLING DX SINGLE SPEED 28 18KBTU/HR 14.0SEER\" - Full load outlet air dry-bulb temperature < 2C. This indicates the possibility of coil frost/freeze. Outlet temperature = -2.48 C.\n   **   ~~~   **  ...Occurrence info = RUN PERIOD 1, 01/03 08:02 - 08:04\n   **   ~~~   ** ... Possible reasons for low outlet air dry-bulb temperatures are: This DX coil\n   **   ~~~   **    1) may have a low inlet air dry-bulb temperature. Inlet air temperature = 12.423 C.\n   **   ~~~   **    2) may have a low air flow rate per watt of cooling capacity. Check inputs.\n   **   ~~~   **    3) is used as part of a HX assisted cooling coil which uses a high sensible effectiveness. Check inputs.\n   ** Warning ** CalcDoe2DXCoil: Coil:Cooling:DX:SingleSpeed \"COIL COOLING DX SINGLE SPEED 26 9KBTU/HR 10.5EER\" - Full load outlet air dry-bulb temperature < 2C. This indicates the possibility of coil frost/freeze. Outlet temperature = 1.36 C.\n   **   ~~~   **  ...Occurrence info = RUN PERIOD 1, 01/07 13:00 - 13:08\n   **   ~~~   ** ... Possible reasons for low outlet air dry-bulb temperatures are: This DX coil\n   **   ~~~   **    1) may have a low inlet air dry-bulb temperature. Inlet air temperature = 15.089 C.\n   **   ~~~   **    2) may have a low air flow rate per watt of cooling capacity. Check inputs.\n   **   ~~~   **    3) is used as part of a HX assisted cooling coil which uses a high sensible effectiveness. Check inputs.\n   ** Warning ** CalcDoe2DXCoil: Coil:Cooling:DX:SingleSpeed \"COIL COOLING DX SINGLE SPEED 25 9KBTU/HR 10.6EER\" - Full load outlet air dry-bulb temperature < 2C. This indicates the possibility of coil frost/freeze. Outlet temperature = 1.30 C.\n   **   ~~~   **  ...Occurrence info = RUN PERIOD 1, 01/07 13:08 - 13:15\n   **   ~~~   ** ... Possible reasons for low outlet air dry-bulb temperatures are: This DX coil\n   **   ~~~   **    1) may have a low inlet air dry-bulb temperature. Inlet air temperature = 15.038 C.\n   **   ~~~   **    2) may have a low air flow rate per watt of cooling capacity. Check inputs.\n   **   ~~~   **    3) is used as part of a HX assisted cooling coil which uses a high sensible effectiveness. Check inputs.\n   ** Warning ** CalcDoe2DXCoil: Coil:Cooling:DX:SingleSpeed \"COIL COOLING DX SINGLE SPEED 7 10KBTU/HR 10.4EER\" - Full load outlet air dry-bulb temperature < 2C. This indicates the possibility of coil frost/freeze. Outlet temperature = 1.99 C.\n   **   ~~~   **  ...Occurrence info = RUN PERIOD 1, 01/07 15:30 - 15:45\n   **   ~~~   ** ... Possible reasons for low outlet air dry-bulb temperatures are: This DX coil\n   **   ~~~   **    1) may have a low inlet air dry-bulb temperature. Inlet air temperature = 15.730 C.\n   **   ~~~   **    2) may have a low air flow rate per watt of cooling capacity. Check inputs.\n   **   ~~~   **    3) is used as part of a HX assisted cooling coil which uses a high sensible effectiveness. Check inputs.\n   ** Warning ** CalcDoe2DXCoil: Coil:Cooling:DX:SingleSpeed \"COIL COOLING DX SINGLE SPEED 9 10KBTU/HR 10.3EER\" - Full load outlet air dry-bulb temperature < 2C. This indicates the possibility of coil frost/freeze. Outlet temperature = 1.97 C.\n   **   ~~~   **  ...Occurrence info = RUN PERIOD 1, 01/07 16:15 - 16:22\n   **   ~~~   ** ... Possible reasons for low outlet air dry-bulb temperatures are: This DX coil\n   **   ~~~   **    1) may have a low inlet air dry-bulb temperature. Inlet air temperature = 15.695 C.\n   **   ~~~   **    2) may have a low air flow rate per watt of cooling capacity. Check inputs.\n   **   ~~~   **    3) is used as part of a HX assisted cooling coil which uses a high sensible effectiveness. Check inputs.\n   ** Warning ** CalcDoe2DXCoil: Coil:Cooling:DX:SingleSpeed \"COIL COOLING DX SINGLE SPEED 27 11KBTU/HR 10.1EER\" - Full load outlet air dry-bulb temperature < 2C. This indicates the possibility of coil frost/freeze. Outlet temperature = 1.91 C.\n   **   ~~~   **  ...Occurrence info = RUN PERIOD 1, 01/09 13:15 - 13:22\n   **   ~~~   ** ... Possible reasons for low outlet air dry-bulb temperatures are: This DX coil\n   **   ~~~   **    1) may have a low inlet air dry-bulb temperature. Inlet air temperature = 15.660 C.\n   **   ~~~   **    2) may have a low air flow rate per watt of cooling capacity. Check inputs.\n   **   ~~~   **    3) is used as part of a HX assisted cooling coil which uses a high sensible effectiveness. Check inputs.\n   ** Warning ** CalcDoe2DXCoil: Coil:Cooling:DX:SingleSpeed \"COIL COOLING DX SINGLE SPEED 28 18KBTU/HR 14.0SEER\" - Air-cooled condenser inlet dry-bulb temperature below 0 C. Outdoor dry-bulb temperature = -1.40\n   **   ~~~   **  ... Occurrence info = RUN PERIOD 1, 02/07 12:23 - 12:30\n   **   ~~~   ** ... Operation at low ambient temperatures may require special performance curves.\n   ** Warning ** CalcDoe2DXCoil: Coil:Cooling:DX:SingleSpeed \"COIL COOLING DX SINGLE SPEED 6 7KBTU/HR 10.9EER\" - Air-cooled condenser inlet dry-bulb temperature below 0 C. Outdoor dry-bulb temperature = -6.38\n   **   ~~~   **  ... Occurrence info = RUN PERIOD 1, 02/13 19:30 - 19:45\n   **   ~~~   ** ... Operation at low ambient temperatures may require special performance curves.\n   ** Warning ** CalcDoe2DXCoil: Coil:Cooling:DX:SingleSpeed \"COIL COOLING DX SINGLE SPEED 15 11KBTU/HR 10.2EER\" - Air-cooled condenser inlet dry-bulb temperature below 0 C. Outdoor dry-bulb temperature = -0.60\n   **   ~~~   **  ... Occurrence info = RUN PERIOD 1, 02/24 14:30 - 14:45\n   **   ~~~   ** ... Operation at low ambient temperatures may require special performance curves.\n   ** Warning ** CalcDoe2DXCoil: Coil:Cooling:DX:SingleSpeed \"COIL COOLING DX SINGLE SPEED 5 12KBTU/HR 10.0EER\" - Air-cooled condenser inlet dry-bulb temperature below 0 C. Outdoor dry-bulb temperature = -7.50E-002\n   **   ~~~   **  ... Occurrence info = RUN PERIOD 1, 03/01 18:00 - 18:15\n   **   ~~~   ** ... Operation at low ambient temperatures may require special performance curves.\n   ** Warning ** CalcDoe2DXCoil: Coil:Cooling:DX:SingleSpeed \"COIL COOLING DX SINGLE SPEED 24 7KBTU/HR 11.0EER\" - Air-cooled condenser inlet dry-bulb temperature below 0 C. Outdoor dry-bulb temperature = -0.15\n   **   ~~~   **  ... Occurrence info = RUN PERIOD 1, 03/02 16:30 - 16:38\n   **   ~~~   ** ... Operation at low ambient temperatures may require special performance curves.\n   ** Warning ** CalcDoe2DXCoil: Coil:Cooling:DX:SingleSpeed \"COIL COOLING DX SINGLE SPEED 20 10KBTU/HR 10.4EER\" - Air-cooled condenser inlet dry-bulb temperature below 0 C. Outdoor dry-bulb temperature = -0.15\n   **   ~~~   **  ... Occurrence info = RUN PERIOD 1, 03/02 16:30 - 16:38\n   **   ~~~   ** ... Operation at low ambient temperatures may require special performance curves.\n   ** Warning ** CalcDoe2DXCoil: Coil:Cooling:DX:SingleSpeed \"COIL COOLING DX SINGLE SPEED 11 12KBTU/HR 9.9EER\" - Air-cooled condenser inlet dry-bulb temperature below 0 C. Outdoor dry-bulb temperature = -0.15\n   **   ~~~   **  ... Occurrence info = RUN PERIOD 1, 03/02 16:30 - 16:38\n   **   ~~~   ** ... Operation at low ambient temperatures may require special performance curves.\n   ** Warning ** CalcDoe2DXCoil: Coil:Cooling:DX:SingleSpeed \"COIL COOLING DX SINGLE SPEED 4 6KBTU/HR 11.0EER\" - Air-cooled condenser inlet dry-bulb temperature below 0 C. Outdoor dry-bulb temperature = -5.00E-002\n   **   ~~~   **  ... Occurrence info = RUN PERIOD 1, 03/06 19:15 - 19:30\n   **   ~~~   ** ... Operation at low ambient temperatures may require special performance curves.\n   ** Warning ** CalcDoe2DXCoil: Coil:Cooling:DX:SingleSpeed \"COIL COOLING DX SINGLE SPEED 3 6KBTU/HR 11.0EER\" - Air-cooled condenser inlet dry-bulb temperature below 0 C. Outdoor dry-bulb temperature = -5.00E-002\n   **   ~~~   **  ... Occurrence info = RUN PERIOD 1, 03/06 19:15 - 19:30\n   **   ~~~   ** ... Operation at low ambient temperatures may require special performance curves.\n   ** Warning ** CalcDoe2DXCoil: Coil:Cooling:DX:SingleSpeed \"COIL COOLING DX SINGLE SPEED 4 6KBTU/HR 11.0EER\" - Full load outlet air dry-bulb temperature < 2C. This indicates the possibility of coil frost/freeze. Outlet temperature = 2.00 C.\n   **   ~~~   **  ...Occurrence info = RUN PERIOD 1, 03/18 20:30 - 20:45\n   **   ~~~   ** ... Possible reasons for low outlet air dry-bulb temperatures are: This DX coil\n   **   ~~~   **    1) may have a low inlet air dry-bulb temperature. Inlet air temperature = 14.868 C.\n   **   ~~~   **    2) may have a low air flow rate per watt of cooling capacity. Check inputs.\n   **   ~~~   **    3) is used as part of a HX assisted cooling coil which uses a high sensible effectiveness. Check inputs.\n   ** Warning ** CalcDoe2DXCoil: Coil:Cooling:DX:SingleSpeed \"COIL COOLING DX SINGLE SPEED 3 6KBTU/HR 11.0EER\" - Full load outlet air dry-bulb temperature < 2C. This indicates the possibility of coil frost/freeze. Outlet temperature = 1.97 C.\n   **   ~~~   **  ...Occurrence info = RUN PERIOD 1, 03/18 20:45 - 21:00\n   **   ~~~   ** ... Possible reasons for low outlet air dry-bulb temperatures are: This DX coil\n   **   ~~~   **    1) may have a low inlet air dry-bulb temperature. Inlet air temperature = 14.825 C.\n   **   ~~~   **    2) may have a low air flow rate per watt of cooling capacity. Check inputs.\n   **   ~~~   **    3) is used as part of a HX assisted cooling coil which uses a high sensible effectiveness. Check inputs.\n   ** Warning ** CalcDoe2DXCoil: Coil:Cooling:DX:SingleSpeed \"COIL COOLING DX SINGLE SPEED 2 11KBTU/HR 10.2EER\" - Air-cooled condenser inlet dry-bulb temperature below 0 C. Outdoor dry-bulb temperature = -0.20\n   **   ~~~   **  ... Occurrence info = RUN PERIOD 1, 03/26 19:45 - 20:00\n   **   ~~~   ** ... Operation at low ambient temperatures may require special performance curves.\n   ** Warning ** CalcDoe2DXCoil: Coil:Cooling:DX:SingleSpeed \"COIL COOLING DX SINGLE SPEED 23 10KBTU/HR 10.4EER\" - Air-cooled condenser inlet dry-bulb temperature below 0 C. Outdoor dry-bulb temperature = -4.20\n   **   ~~~   **  ... Occurrence info = RUN PERIOD 1, 03/28 09:45 - 09:52\n   **   ~~~   ** ... Operation at low ambient temperatures may require special performance curves.\n   ** Warning ** CalcDoe2DXCoil: Coil:Cooling:DX:SingleSpeed \"COIL COOLING DX SINGLE SPEED 22 5KBTU/HR 11.0EER\" - Air-cooled condenser inlet dry-bulb temperature below 0 C. Outdoor dry-bulb temperature = -1.10\n   **   ~~~   **  ... Occurrence info = RUN PERIOD 1, 09/16 22:15 - 22:30\n   **   ~~~   ** ... Operation at low ambient temperatures may require special performance curves.\n   ** Warning ** CalcDoe2DXCoil: Coil:Cooling:DX:SingleSpeed \"COIL COOLING DX SINGLE SPEED 21 5KBTU/HR 11.0EER\" - Air-cooled condenser inlet dry-bulb temperature below 0 C. Outdoor dry-bulb temperature = -1.10\n   **   ~~~   **  ... Occurrence info = RUN PERIOD 1, 09/16 22:15 - 22:30\n   **   ~~~   ** ... Operation at low ambient temperatures may require special performance curves.\n   ************* Simulation Error Summary *************\n   ************* There are 9 unused schedules in input.\n   ************* There are 9 unused week schedules in input.\n   ************* There are 17 unused day schedules in input.\n   ************* Use Output:Diagnostics,DisplayUnusedSchedules; to see them.\n   *************\n   ************* ===== Recurring Error Summary =====\n   ************* The following recurring error messages occurred.\n   *************\n   *************  ** Warning ** CalcDoe2DXCoil: Coil:Cooling:DX:SingleSpeed=\"COIL COOLING DX SINGLE SPEED 25 9KBTU/HR 10.6EER\" - Low condenser dry-bulb temperature error continues...\n   *************  **   ~~~   **   This error occurred 2451 total times;\n   *************  **   ~~~   **   during Warmup 0 times;\n   *************  **   ~~~   **   during Sizing 0 times.\n   *************  **   ~~~   **   Max=-1.387779E-017 [C]  Min=-29.15 [C]\n   *************\n   *************  ** Warning ** CalcDoe2DXCoil: Coil:Cooling:DX:SingleSpeed=\"COIL COOLING DX SINGLE SPEED 26 9KBTU/HR 10.5EER\" - Low condenser dry-bulb temperature error continues...\n   *************  **   ~~~   **   This error occurred 2410 total times;\n   *************  **   ~~~   **   during Warmup 0 times;\n   *************  **   ~~~   **   during Sizing 0 times.\n   *************  **   ~~~   **   Max=-1.387779E-017 [C]  Min=-29.15 [C]\n   *************\n   *************  ** Warning ** CalcDoe2DXCoil: Coil:Cooling:DX:SingleSpeed=\"COIL COOLING DX SINGLE SPEED 27 11KBTU/HR 10.1EER\" - Low condenser dry-bulb temperature error continues...\n   *************  **   ~~~   **   This error occurred 1894 total times;\n   *************  **   ~~~   **   during Warmup 0 times;\n   *************  **   ~~~   **   during Sizing 0 times.\n   *************  **   ~~~   **   Max=-2.775558E-017 [C]  Min=-28.9 [C]\n   *************\n   *************  ** Warning ** CalcDoe2DXCoil: Coil:Cooling:DX:SingleSpeed=\"COIL COOLING DX SINGLE SPEED 7 10KBTU/HR 10.4EER\" - Low condenser dry-bulb temperature error continues...\n   *************  **   ~~~   **   This error occurred 4347 total times;\n   *************  **   ~~~   **   during Warmup 0 times;\n   *************  **   ~~~   **   during Sizing 0 times.\n   *************  **   ~~~   **   Max=-1.387779E-017 [C]  Min=-29.025 [C]\n   *************\n   *************  ** Warning ** CalcDoe2DXCoil: Coil:Cooling:DX:SingleSpeed=\"COIL COOLING DX SINGLE SPEED 9 10KBTU/HR 10.3EER\" - Low condenser dry-bulb temperature error continues...\n   *************  **   ~~~   **   This error occurred 4315 total times;\n   *************  **   ~~~   **   during Warmup 0 times;\n   *************  **   ~~~   **   during Sizing 0 times.\n   *************  **   ~~~   **   Max=-1.387779E-017 [C]  Min=-29.025 [C]\n   *************\n   *************  ** Warning ** CalcDoe2DXCoil: Coil:Cooling:DX:SingleSpeed=\"COIL COOLING DX SINGLE SPEED 8 12KBTU/HR 9.9EER\" - Low condenser dry-bulb temperature error continues...\n   *************  **   ~~~   **   This error occurred 2558 total times;\n   *************  **   ~~~   **   during Warmup 0 times;\n   *************  **   ~~~   **   during Sizing 0 times.\n   *************  **   ~~~   **   Max=-1.387779E-017 [C]  Min=-28.9 [C]\n   *************\n   *************  ** Warning ** CalcDoe2DXCoil: Coil:Cooling:DX:SingleSpeed=\"COIL COOLING DX SINGLE SPEED 10 13KBTU/HR 9.8EER\" - Low condenser dry-bulb temperature error continues...\n   *************  **   ~~~   **   This error occurred 2601 total times;\n   *************  **   ~~~   **   during Warmup 0 times;\n   *************  **   ~~~   **   during Sizing 0 times.\n   *************  **   ~~~   **   Max=-1.387779E-017 [C]  Min=-28.9 [C]\n   *************\n   *************  ** Warning ** CalcDoe2DXCoil: Coil:Cooling:DX:SingleSpeed=\"COIL COOLING DX SINGLE SPEED 19 13KBTU/HR 9.7EER\" - Low condenser dry-bulb temperature error continues...\n   *************  **   ~~~   **   This error occurred 1199 total times;\n   *************  **   ~~~   **   during Warmup 0 times;\n   *************  **   ~~~   **   during Sizing 0 times.\n   *************  **   ~~~   **   Max=-2.775558E-017 [C]  Min=-25.6 [C]\n   *************\n   *************  ** Warning ** CalcDoe2DXCoil: Coil:Cooling:DX:SingleSpeed=\"COIL COOLING DX SINGLE SPEED 16 13KBTU/HR 9.7EER\" - Low condenser dry-bulb temperature error continues...\n   *************  **   ~~~   **   This error occurred 1204 total times;\n   *************  **   ~~~   **   during Warmup 0 times;\n   *************  **   ~~~   **   during Sizing 0 times.\n   *************  **   ~~~   **   Max=-2.775558E-017 [C]  Min=-25.3 [C]\n   *************\n   *************  ** Warning ** CalcDoe2DXCoil: Coil:Cooling:DX:SingleSpeed=\"COIL COOLING DX SINGLE SPEED 18 15KBTU/HR 9.4EER\" - Low condenser dry-bulb temperature error continues...\n   *************  **   ~~~   **   This error occurred 1224 total times;\n   *************  **   ~~~   **   during Warmup 0 times;\n   *************  **   ~~~   **   during Sizing 0 times.\n   *************  **   ~~~   **   Max=-2.775558E-017 [C]  Min=-25. [C]\n   *************\n   *************  ** Warning ** CalcDoe2DXCoil: Coil:Cooling:DX:SingleSpeed=\"COIL COOLING DX SINGLE SPEED 17 15KBTU/HR 9.3EER\" - Low condenser dry-bulb temperature error continues...\n   *************  **   ~~~   **   This error occurred 1070 total times;\n   *************  **   ~~~   **   during Warmup 0 times;\n   *************  **   ~~~   **   during Sizing 0 times.\n   *************  **   ~~~   **   Max=-2.775558E-017 [C]  Min=-25. [C]\n   *************\n   *************  ** Warning ** CalcDoe2DXCoil: Coil:Cooling:DX:SingleSpeed=\"COIL COOLING DX SINGLE SPEED 28 18KBTU/HR 14.0SEER\" - Full load outlet temperature indicates a possibility of frost/freeze error continues. Outlet air temperature statistics follow:\n   *************  **   ~~~   **   This error occurred 724 total times;\n   *************  **   ~~~   **   during Warmup 0 times;\n   *************  **   ~~~   **   during Sizing 0 times.\n   *************  **   ~~~   **   Max=1.996928  Min=-3.052142\n   *************\n   *************  ** Warning ** CalcDoe2DXCoil: Coil:Cooling:DX:SingleSpeed=\"COIL COOLING DX SINGLE SPEED 26 9KBTU/HR 10.5EER\" - Full load outlet temperature indicates a possibility of frost/freeze error continues. Outlet air temperature statistics follow:\n   *************  **   ~~~   **   This error occurred 136 total times;\n   *************  **   ~~~   **   during Warmup 0 times;\n   *************  **   ~~~   **   during Sizing 0 times.\n   *************  **   ~~~   **   Max=1.996183  Min=7.008300E-002\n   *************\n   *************  ** Warning ** CalcDoe2DXCoil: Coil:Cooling:DX:SingleSpeed=\"COIL COOLING DX SINGLE SPEED 25 9KBTU/HR 10.6EER\" - Full load outlet temperature indicates a possibility of frost/freeze error continues. Outlet air temperature statistics follow:\n   *************  **   ~~~   **   This error occurred 170 total times;\n   *************  **   ~~~   **   during Warmup 0 times;\n   *************  **   ~~~   **   during Sizing 0 times.\n   *************  **   ~~~   **   Max=1.989332  Min=-0.314667\n   *************\n   *************  ** Warning ** CalcDoe2DXCoil: Coil:Cooling:DX:SingleSpeed=\"COIL COOLING DX SINGLE SPEED 7 10KBTU/HR 10.4EER\" - Full load outlet temperature indicates a possibility of frost/freeze error continues. Outlet air temperature statistics follow:\n   *************  **   ~~~   **   This error occurred 81 total times;\n   *************  **   ~~~   **   during Warmup 0 times;\n   *************  **   ~~~   **   during Sizing 0 times.\n   *************  **   ~~~   **   Max=1.993509  Min=0.927273\n   *************\n   *************  ** Warning ** CalcDoe2DXCoil: Coil:Cooling:DX:SingleSpeed=\"COIL COOLING DX SINGLE SPEED 9 10KBTU/HR 10.3EER\" - Full load outlet temperature indicates a possibility of frost/freeze error continues. Outlet air temperature statistics follow:\n   *************  **   ~~~   **   This error occurred 67 total times;\n   *************  **   ~~~   **   during Warmup 0 times;\n   *************  **   ~~~   **   during Sizing 0 times.\n   *************  **   ~~~   **   Max=1.968474  Min=1.054879\n   *************\n   *************  ** Warning ** CalcDoe2DXCoil: Coil:Cooling:DX:SingleSpeed=\"COIL COOLING DX SINGLE SPEED 27 11KBTU/HR 10.1EER\" - Full load outlet temperature indicates a possibility of frost/freeze error continues. Outlet air temperature statistics follow:\n   *************  **   ~~~   **   This error occurred 9 total times;\n   *************  **   ~~~   **   during Warmup 0 times;\n   *************  **   ~~~   **   during Sizing 0 times.\n   *************  **   ~~~   **   Max=1.99241  Min=1.912041\n   *************\n   *************  ** Warning ** CalcDoe2DXCoil: Coil:Cooling:DX:SingleSpeed=\"COIL COOLING DX SINGLE SPEED 28 18KBTU/HR 14.0SEER\" - Low condenser dry-bulb temperature error continues...\n   *************  **   ~~~   **   This error occurred 56 total times;\n   *************  **   ~~~   **   during Warmup 0 times;\n   *************  **   ~~~   **   during Sizing 0 times.\n   *************  **   ~~~   **   Max=-0.1 [C]  Min=-2.95 [C]\n   *************\n   *************  ** Warning ** CalcDoe2DXCoil: Coil:Cooling:DX:SingleSpeed=\"COIL COOLING DX SINGLE SPEED 6 7KBTU/HR 10.9EER\" - Low condenser dry-bulb temperature error continues...\n   *************  **   ~~~   **   This error occurred 1268 total times;\n   *************  **   ~~~   **   during Warmup 0 times;\n   *************  **   ~~~   **   during Sizing 0 times.\n   *************  **   ~~~   **   Max=-1.387779E-017 [C]  Min=-12.4 [C]\n   *************\n   *************  ** Warning ** CalcDoe2DXCoil: Coil:Cooling:DX:SingleSpeed=\"COIL COOLING DX SINGLE SPEED 15 11KBTU/HR 10.2EER\" - Low condenser dry-bulb temperature error continues...\n   *************  **   ~~~   **   This error occurred 81 total times;\n   *************  **   ~~~   **   during Warmup 0 times;\n   *************  **   ~~~   **   during Sizing 0 times.\n   *************  **   ~~~   **   Max=-2.500000E-002 [C]  Min=-7. [C]\n   *************\n   *************  ** Warning ** CalcDoe2DXCoil: Coil:Cooling:DX:SingleSpeed=\"COIL COOLING DX SINGLE SPEED 5 12KBTU/HR 10.0EER\" - Low condenser dry-bulb temperature error continues...\n   *************  **   ~~~   **   This error occurred 303 total times;\n   *************  **   ~~~   **   during Warmup 0 times;\n   *************  **   ~~~   **   during Sizing 0 times.\n   *************  **   ~~~   **   Max=-5.551115E-017 [C]  Min=-7.2 [C]\n   *************\n   *************  ** Warning ** CalcDoe2DXCoil: Coil:Cooling:DX:SingleSpeed=\"COIL COOLING DX SINGLE SPEED 24 7KBTU/HR 11.0EER\" - Low condenser dry-bulb temperature error continues...\n   *************  **   ~~~   **   This error occurred 98 total times;\n   *************  **   ~~~   **   during Warmup 0 times;\n   *************  **   ~~~   **   during Sizing 0 times.\n   *************  **   ~~~   **   Max=-5.551115E-017 [C]  Min=-6.05 [C]\n   *************\n   *************  ** Warning ** CalcDoe2DXCoil: Coil:Cooling:DX:SingleSpeed=\"COIL COOLING DX SINGLE SPEED 20 10KBTU/HR 10.4EER\" - Low condenser dry-bulb temperature error continues...\n   *************  **   ~~~   **   This error occurred 94 total times;\n   *************  **   ~~~   **   during Warmup 0 times;\n   *************  **   ~~~   **   during Sizing 0 times.\n   *************  **   ~~~   **   Max=-5.551115E-017 [C]  Min=-6.2 [C]\n   *************\n   *************  ** Warning ** CalcDoe2DXCoil: Coil:Cooling:DX:SingleSpeed=\"COIL COOLING DX SINGLE SPEED 11 12KBTU/HR 9.9EER\" - Low condenser dry-bulb temperature error continues...\n   *************  **   ~~~   **   This error occurred 67 total times;\n   *************  **   ~~~   **   during Warmup 0 times;\n   *************  **   ~~~   **   during Sizing 0 times.\n   *************  **   ~~~   **   Max=-2.500000E-002 [C]  Min=-6.2 [C]\n   *************\n   *************  ** Warning ** CalcDoe2DXCoil: Coil:Cooling:DX:SingleSpeed=\"COIL COOLING DX SINGLE SPEED 4 6KBTU/HR 11.0EER\" - Low condenser dry-bulb temperature error continues...\n   *************  **   ~~~   **   This error occurred 283 total times;\n   *************  **   ~~~   **   during Warmup 0 times;\n   *************  **   ~~~   **   during Sizing 0 times.\n   *************  **   ~~~   **   Max=-1.387779E-017 [C]  Min=-7.7 [C]\n   *************\n   *************  ** Warning ** CalcDoe2DXCoil: Coil:Cooling:DX:SingleSpeed=\"COIL COOLING DX SINGLE SPEED 3 6KBTU/HR 11.0EER\" - Low condenser dry-bulb temperature error continues...\n   *************  **   ~~~   **   This error occurred 228 total times;\n   *************  **   ~~~   **   during Warmup 0 times;\n   *************  **   ~~~   **   during Sizing 0 times.\n   *************  **   ~~~   **   Max=-5.551115E-017 [C]  Min=-6.8 [C]\n   *************\n   *************  ** Warning ** CalcDoe2DXCoil: Coil:Cooling:DX:SingleSpeed=\"COIL COOLING DX SINGLE SPEED 4 6KBTU/HR 11.0EER\" - Full load outlet temperature indicates a possibility of frost/freeze error continues. Outlet air temperature statistics follow:\n   *************  **   ~~~   **   This error occurred 14 total times;\n   *************  **   ~~~   **   during Warmup 0 times;\n   *************  **   ~~~   **   during Sizing 0 times.\n   *************  **   ~~~   **   Max=1.997983  Min=1.093452\n   *************\n   *************  ** Warning ** CalcDoe2DXCoil: Coil:Cooling:DX:SingleSpeed=\"COIL COOLING DX SINGLE SPEED 3 6KBTU/HR 11.0EER\" - Full load outlet temperature indicates a possibility of frost/freeze error continues. Outlet air temperature statistics follow:\n   *************  **   ~~~   **   This error occurred 6 total times;\n   *************  **   ~~~   **   during Warmup 0 times;\n   *************  **   ~~~   **   during Sizing 0 times.\n   *************  **   ~~~   **   Max=1.979211  Min=1.51507\n   *************\n   *************  ** Warning ** CalcDoe2DXCoil: Coil:Cooling:DX:SingleSpeed=\"COIL COOLING DX SINGLE SPEED 2 11KBTU/HR 10.2EER\" - Low condenser dry-bulb temperature error continues...\n   *************  **   ~~~   **   This error occurred 70 total times;\n   *************  **   ~~~   **   during Warmup 0 times;\n   *************  **   ~~~   **   during Sizing 0 times.\n   *************  **   ~~~   **   Max=-5.551115E-017 [C]  Min=-6.5 [C]\n   *************\n   *************  ** Warning ** CalcDoe2DXCoil: Coil:Cooling:DX:SingleSpeed=\"COIL COOLING DX SINGLE SPEED 23 10KBTU/HR 10.4EER\" - Low condenser dry-bulb temperature error continues...\n   *************  **   ~~~   **   This error occurred 46 total times;\n   *************  **   ~~~   **   during Warmup 0 times;\n   *************  **   ~~~   **   during Sizing 0 times.\n   *************  **   ~~~   **   Max=-0.175 [C]  Min=-6.5 [C]\n   *************\n   *************  ** Warning ** CalcDoe2DXCoil: Coil:Cooling:DX:SingleSpeed=\"COIL COOLING DX SINGLE SPEED 22 5KBTU/HR 11.0EER\" - Low condenser dry-bulb temperature error continues...\n   *************  **   ~~~   **   This error occurred 4 total times;\n   *************  **   ~~~   **   during Warmup 0 times;\n   *************  **   ~~~   **   during Sizing 0 times.\n   *************  **   ~~~   **   Max=-0.3 [C]  Min=-3.3 [C]\n   *************\n   *************  ** Warning ** CalcDoe2DXCoil: Coil:Cooling:DX:SingleSpeed=\"COIL COOLING DX SINGLE SPEED 21 5KBTU/HR 11.0EER\" - Low condenser dry-bulb temperature error continues...\n   *************  **   ~~~   **   This error occurred 4 total times;\n   *************  **   ~~~   **   during Warmup 0 times;\n   *************  **   ~~~   **   during Sizing 0 times.\n   *************  **   ~~~   **   Max=-0.3 [C]  Min=-3.3 [C]\n   *************\n   *************\n   ************* ===== Final Error Summary =====\n   ************* The following error categories occurred.  Consider correcting or noting.\n   ************* Nominally Unused Constructions\n   ************* ..The nominally unused constructions warning is provided to alert you to potential conditions that can cause\n   ************* ..extra time during simulation. Each construction is calculated by the algorithm indicated in the HeatBalanceAlgorithm\n   ************* ..object. You may remove the constructions indicated (when you use the DisplayExtraWarnings option).\n   *************\n   ************* EnergyPlus Warmup Error Summary. During Warmup: 0 Warning; 0 Severe Errors.\n   ************* EnergyPlus Sizing Error Summary. During Sizing: 181 Warning; 0 Severe Errors.\n   ************* EnergyPlus Completed Successfully-- 29295 Warning; 0 Severe Errors; Elapsed Time=00hr 02min 55.76sec\n",
   "file_format_version" : "0.0.1",
   "file_paths" : [ "../weather", "../seeds", "../seed" ],
   "hash" : "E897F4C4",
   "measure_paths" : [ "../measures" ],
   "name" : "LHS Autogenerated 918",
   "osa_id" : "4fef0e0f-5396-4c55-a6e1-2cd6803db3ab",
   "osd_id" : "d573ba3b-fa4a-4f06-9752-02af02016cee",
   "run_directory" : "./run",
   "seed_file" : "seed.osm",
   "started_at" : "20170710T192210Z",
   "steps" : [
      {
         "arguments" : {
            "__SKIP__" : false,
            "building_type" : "MidriseApartment",
            "climate_zone" : "NECB HDD Method",
            "epw_file" : "CAN_AB_Edmonton.711230_CWEC.epw",
            "template" : "NECB 2011"
         },
         "measure_dir_name" : "create_prototype_building",
         "name" : "create_prototype_building",
         "result" : {
            "completed_at" : "20170710T192332Z",
            "measure_class_name" : "CreatePrototypeBuilding",
            "measure_display_name" : "Create Prototype Building",
            "measure_name" : "create_prototype_building",
            "measure_taxonomy" : "Whole Building.Space Types",
            "measure_type" : "ModelMeasure",
            "measure_uid" : "ae90fsd7-a651-467a-bc8d-29d310b0f937",
            "measure_version_id" : "c6ec5c18-5595-459f-a082-09a19c8c869c",
            "measure_version_modified" : "20170519T182315Z",
            "measure_xml_checksum" : "057E8D9D",
            "started_at" : "20170710T192213Z",
            "stderr" : "",
[...]
D2jQUlCr1YLcBbRoKSvV6sNiANg3djKlmD7Ya0KahoFSzByttXpu2zAHaNBRUvyKgTUNB9eEH2jQUVB9+oE1DQfXhJ9o0lhTr9mCzEW0aS4rVe7DciDaNJcUaPthvRJvG7spYxwcrjmjTWFKs44MtpzZNbZratE+EatPeR22a2jS1aYNRm6Y2bdVfpTZt8fwVn1eb9jhq0+7zgm9pbcwuII444ogjjjjiiCOOOOKIs3ucjUkHpJFGGmmkkUYaaaSRRhpp9kPzbWQH4ogjjjjiiCOOOOKII444889Tm/YxatPu2rS2D23aeQfatPOXadPefvSINY3kHEI5x1DOKZRzDuVcQjnXUM4tlLP40T0KSjW6pSrdUp1uqVK3VKtbqtYt1euWKnZLNbunmt1jd3Wq2T3V7L6q2c/r0RZR83Y0EFO+oXk3Gogpz/28GQ3ElGd+3osGYsrzDqxoJCfU43qNASUayQlVud5hwIdGckJtrhcYkKGRezDU53p7ARMayQn1uV5d8xq0RQywoJGc8vUABxrJKY87MKCRnPK4A/8ZySmPO7GfoaBUo+sNRtRnKChV6nqJEe8ZCkr1ut5jRHqGbsZUs+tVRoxnKCjV7HqbqTtTd6bu7BOhurP3UXem7kzd2WDUnak7W/VXqTtbPH/F59WdPY66s/u84NtVG7MCiCOOOOKII4444ogjjjji7B5nY7IAaaSRRhpppJFGGmmkkUaa/dB8G0mBOOKII4444ogjjjjiiCPO/PPUnX2MurO77qzvQ3d22YHu7PKFurO3U8h3BoIOqaBjKuiUCjqngi6poGsq6JYK+uXn9iQp1u0WK3eLtbvF6t1i/W6xgrdYw1us4i3W8R7reM/d37GO91jH+7qOr9GgPWYRD9p8Tv2WiAltPqe+BYgLbT6nvgGIDW0+pz79yIcGglKNHqw3pEQDQalSD3YbsqKBoFSvB4sNidHAzZhq9mCrITcaCEo1e7DSiB7tMQf50UBQ/YqQIQ0E1YcfOdJAUH34kSUNBNWHn3nSSFKs24PNxlRpJClW78FyY7Y0khRr+GC/MWEauStjHR+sOOZMI0mxjg+2nNo0tWlq0z4Rqk17H7VpatPUpg1GbZratFV/ldq0xfNXfF5t2uOoTbvPC76ltTG7gDjiiCOOOOKII4444ogjzu5xNiYdkEYaaaSRRhpppJFGGmmk2Q/Nt5EdiCOOOOKII4444ogjjjjizD9PbdrHqE27a9MO+9CmXXegTbt+mTbt/PNHobOKm1TQIRV0TAWdUkHnVNAlFXRNBd1SQYtf37OkWLdbrNwt1u4Wq3eL9bvFCt5iDW+xirdYx3us4z13f8c63mMd7+s6/rw2bZk1r00jOfVbmtemkZz6FpjXppGc+gaY16aRnPr0A20aCko1erDegDYNBaVKPdhtQJuGglK9Hiw2oE1DN2Oq2YOtBrRpKCjV7MFKm9emLXOANg0F1a8IaNNQUH34gTYNBdWHH2jTUFB9+Ik2jSXFuj3YbESbxpJi9R4sN6JNY0mxhg/2G9Gmsbsy1vHBiiPaNJYU6/hgy6lNU5umNu0Todq091GbpjZNbdpg1KapTVv1V6lNWzx/xefVpj2O2rT7vOBbWhuzC4gjjjjiiCOOOOKII4444uweZ2PSAWmkkUYaaaSRRhpppJFGmv3QfBvZgTjiiCOOOOKII4444ogjzvzz1KZ9jNq0uzbtuA9t2m0H2rTbl2nT3n70iDWN5BxCOcdQzimUcw7lXEI511DOLZSz+NE9Cko1uqUq3VKdbqlSt1SrW6rWLdXrlip2SzW7p5rdY3d1qtk91ey+qtnP69EWUfN2NBBTvqF5NxqIKc/9vBkNxJRnft6LBmLK8w6saCQn1ON6jQElGskJVbneYcCHRnJCba4XGJChkXsw1Od6ewETGskJ9bleXfMatEUMsKCRnPL1AAcaySmPOzCgkZzyuAP/Gckpjzuxn6GgVKPrDUbUZygoVep6iRHvGQpK9breY0R6hm7GVLPrVUaMZygo1ex6m6k7U3em7uwTobqz91F3pu5M3dlg1J2pO1v1V6k7Wzx/xefVnT2OurP7vODbVRuzAogjjjjiiCOOOOKII4444uweZ2OyAGmkkUYaaaSRRhpppJFGmv3QfBtJgTjiiCOOOOKII4444ogjzvzz1J19jLqzu+7stAvd2eVt+7qzvzJ+ne7s7RTynYGgQyromAo6pYLOqaBLKuiaCrqlgn75uT1JinW7xcrdYu1usXq3WL9brOAt1vAWq3iLdbzHOt5z93es4z3W8b6u42s0aI9ZxIM2n1O/JWJCm8+pbwHiQpvPqW8AYkObz6lPP/KhgaBUowfrDSnRQFCq1IPdhqxoICjV68FiQ2I0cDOmmj3YasiNBoJSzR6sNKJHe8xBfjQQVL8iZEgDQfXhR440EFQffmRJA0H14WeeNJIU6/ZgszFVGkmK1Xuw3JgtjSTFGj7Yb0yYRu7KWMcHK44500hSrOODLac2TW2a2rRPhGrT3kdtmto0tWmDUZumNm3VX6U2bfH8FZ9Xm/Y4atPu84JvaW3MLiCOOOKII4444ogjjjjiiLN7nI1JB6SRRhpppJFGGmmkkUYaafZD821kB+KII4444ogjjjjiiCOOOPPPU5v2MWrT7tq08z60aW0H2rT2Zdq0888fhc4qblJBh1TQMRV0SgWdU0GXVNA1FXRLBS1+fc+SYt1usXK3WLtbrN4t1u8WK3iLNbzFKt5iHe+xjvfc/R3reI91vK/r+PPatGXWvDaN5NRvaV6bRnLqW2Bem0Zy6htgXptGcurTD7RpKCjV6MF6A9o0FJQq9WC3AW0aCkr1erDYgDYN3YypZg+2GtCmoaBUswcrbV6btswB2jQUVL8ioE1DQfXhB9o0FFQffqBNQ0H14SfaNJYU6/ZgsxFtGkuK1Xuw3Ig2jSXFGj7Yb0Sbxu7KWMcHK45o01hSrOODLac2TW2a2rRPhGrT3kdtmto0tWmDUZumNm3VX6U2bfH8FZ9Xm/Y4atPu84JvaW3MLiCOOOKII4444ogjjjjiiLN7nI1JB6SRRhpppJFGGmmkkUYaafZD821kB+KII4444ogjjjjiiCOOOPPPU5v2MWrT7tq0yz60aX0H2rT+Zdq0tx89Yk0jOYdQzjGUcwrlnEM5l1DONZRzC+UsfnSPglKNbqlKt1SnW6rULdXqlqp1S/W6pYrdUs3uqWb32F2danZPNbuvavbzerRF1LwdDcSUb2jejQZiynM/b0YDMeWZn/eigZjyvAMrGskJ9bheY0CJRnJCVa53GPChkZxQm+sFBmRo5B4M9bneXsCERnJCfa5X17wGbREDLGgkp3w9wIFGcsrjDgxoJKc87sB/RnLK407sZygo1eh6gxH1GQpKlbpeYsR7hoJSva73GJGeoZsx1ex6lRHjGQpKNbveZurO1J2pO/tEqO7sfdSdqTtTdzYYdWfqzlb9VerOFs9f8Xl1Z4+j7uw+L/h21casAOKII4444ogjjjjiiCOOOLvH2ZgsQBpppJFGGmmkkUYaaaSRZj8030ZSII444ogjjjjiiCOOOOKIM/88dWcfo+7srju77kN3dtiB7uzwhbqzt1PIdwaCDqmgYyrolAo6p4IuqaBrKuiWCvrl5/YkKdbtFit3i7W7xerdYv1usYK3WMNbrOIt1vEe63jP3d+xjvdYx/u6jq/RoD1mEQ/afE79logJbT6nvgWIC20+p74BiA1tPqc+/ciHBoJSjR6sN6REA0GpUg92G7KigaBUrweLDYnRwM2YavZgqyE3GghKNXuw0oge7TEH+dFAUP2KkCENBNWHHznSQFB9+JElDQTVh5950khSrNuDzcZUaSQpVu/BcmO2NJIUa/hgvzFhGrkrYx0frDjmTCNJsY4PtpzaNLVpatM+EapNex+1aWrT1KYNRm2a2rRVf5XatMXzV3xebdrjqE27zwu+pbUxu4A44ogjjjjiiCOOOOKII87ucTYmHZBGGmmkkUYaaaSRRhpppNkPzbeRHYgjjjjiiCOOOOKII4444sw/T23ax6hNu2vTbvvQph13oE07fpk27fzzR6GziptU0CEVdEwFnVJB51TQJRV0TQXdUkGLX9+zpFi3W6zcLdbuFqt3i/W7xQreYg1vsYq3WMd7rOM9d3/HOt5jHe/rOv68Nm2ZNa9NIzn1W5rXppGc+haY16aRnPoGmNemkZz69ANtGgpKNXqw3oA2DQWlSj3YbUCbhoJSvR4sNqBNQzdjqtmDrQa0aSgo1ezBSpvXpi1zgDYNBdWvCGjTUFB9+IE2DQXVhx9o01BQffiJNo0lxbo92GxEm8aSYvUeLDeiTWNJsYYP9hvRprG7MtbxwYoj2jSWFOv4YMupTVObpjbtE6HatPdRm6Y2TW3aYNSmqU1b9VepTVs8f8Xn1aY9jtq0+7zgW1obswuII4444ogjjjjiiCOOOOLsHmdj0gFppJFGGmmkkUYaaaSRRpr90Hwb2YE44ogjjjjiiCOOOOKII87889SmfYzatN+1aad9WNNOO7CmnbSmzQVpTfvjIK1pTyVpTdOapjVNa5rWNK1pWtO0pmlN+5s3o9a0Pw7SmvaHQVrTtKZpTdOaFkvSmvZckta0GkZrmta0X0dr2u/4WtN+Ha1pz4zWtHWf15qmNW3VX6U1bfH8FZ/XmvY4WtPu84IvaW1MLiCOOOKII4444ogjjjjiiLN7nI05B6SRRhpppJFGGmmkkUYaafZD821cB+KII4444ogjjjjiiCOOOPPP05r2MVrT7ta0t31o08470Kadv0yb9vajR6xpJOcQyjmGck6hnHMo5xLKuYZybqGcxY/uUVCq0S1V6ZbqdEuVuqVa3VK1bqlet1SxW6rZPdXsHrurU83uqWb3Vc1+Xo+2iJq3o4GY8g3Nu9FATHnu581oIKY88/NeNBBTnndgRSM5oR7Xawwo0UhOqMr1DgM+NJITanO9wIAMjdyDoT7X2wuY0EhOqM/16prXoC1igAWN5JSvBzjQSE553IEBjeSUxx34z0hOedyJ/QwFpRpdbzCiPkNBqVLXS4x4z1BQqtf1HiPSM3QzpppdrzJiPENBqWbX20zdmbozdWefCNWdvY+6M3Vn6s4Go+5M3dmqv0rd2eL5Kz6v7uxx1J3d5wXfrtqYFUAcccQRRxxxxBFHHHHEEWf3OBuTBUgjjTTSSCONNNJII4000uyH5ttICsQRRxxxxBFHHHHEEUccceafp+7sY9Sd3XVnbR+6s8sOdGeXL9SdvZ1CvjMQdEgFHVNBp1TQORV0SQVdU0G3VNAvP7cnSbFut1i5W6zdLVbvFut3ixW8xRreYhVvsY73WMd77v6OdbzHOt7XdXyNBu0xi3jQ5nPqt0RMaPM59S1AXGjzOfUNQGxo8zn16Uc+NBCUavRgvSElGghKlXqw25AVDQSlej1YbEiMBm7GVLMHWw250UBQqtmDlUb0aI85yI8GgupXhAxpIKg+/MiRBoLqw48saSCoPvzMk0aSYt0ebDamSiNJsXoPlhuzpZGkWMMH+40J08hdGev4YMUxZxpJinV8sOXUpqlNU5v2iVBt2vuoTVObpjZtMGrT1Kat+qvUpi2ev+LzatMeR23afV7wLa2N2QXEEUccccQRRxxxxBFHHHF2j7Mx6YA00kgjjTTSSCONNNJII81+aL6N7EAcccQRRxxxxBFHHHHEEWf+eWrTPkZt2l2b1vehTbvuQJt2/TJt2vnnj0JnFTepoEMq6JgKOqWCzqmgSyromgq6pYIWv75nSbFut1i5W6zdLVbvFut3ixW8xRreYhVvsY73WMd77v6OdbzHOt7Xdfx5bdoya16bRnLqtzSvTSM59S0wr00jOfUNMK9NIzn16QfaNBSUavRgvQFtGgpKlXqw24A2DQWlej1YbECbhm7GVLMHWw1o01BQqtmDlTavTVvmAG0aCqpfEdCmoaD68ANtGgqqDz/QpqGg+vATbRpLinV7sNmINo0lxeo9WG5Em8aSYg0f7DeiTWN3ZazjgxVHtGksKdbxwZZTm6Y2TW3aJ0K1ae+jNk1tmtq0wahNU5u26q9Sm7Z4/orPq017HLVp93nBt7Q2ZhcQRxxxxBFHHHHEEUccccTZPc7GpAPSSCONNNJII4000kgjjTT7ofk2sgNxxBFHHHHEEUccccQRR5z556lN+xi1aXdt2mEf2rTbDrRpty/Tpr396BFrGsk5hHKOoZxTKOccyrmEcq6hnFsoZ/GjexSUanRLVbqlOt1SpW6pVrdUrVuq1y1V7JZqdk81u8fu6lSze6rZfVWzn9ejLaLm7WggpnxD8240EFOe+3kzGogpz/y8Fw3ElOcdWNFITqjH9RoDSjSSE6pyvcOAD43khNpcLzAgQyP3YKjP9fYCJjSSE+pzvbrmNWiLGGBBIznl6wEONJJTHndgQCM55XEH/jOSUx53Yj9DQalG1xuMqM9QUKrU9RIj3jMUlOp1vceI9AzdjKlm16uMGM9QUKrZ9TZTd6buTN3ZJ0J1Z++j7kzdmbqzwag7U3e26q9Sd7Z4/orPqzt7HHVn93nBt6s2ZgUQRxxxxBFHHHHEEUccccTZPc7GZAHSSCONNNJII4000kgjjTT7ofk2kgJxxBFHHHHEEUccccQRR5z556k7+xh1Z3fd2XEXurPr2/Z1Z39l/Drd2dsp5DsDQYdU0DEVdEoFnVNBl1TQNRV0SwX98nN7khTrdouVu8Xa3WL1brF+t1jBW6zhLVbxFut4j3W85+7vWMd7rON9XcfXaNAes4gHbT6nfkvEhDafU98CxIU2n1PfAMSGNp9Tn37kQwNBqUYP1htSooGgVKkHuw1Z0UBQqteDxYbEaOBmTDV7sNWQGw0EpZo9WGlEj/aYg/xoIKh+RciQBoLqw48caSCoPvzIkgaC6sPPPGkkKdbtwWZjqjSSFKv3YLkxWxpJijV8sN+YMI3clbGOD1Ycc6aRpFjHB1tObZraNLVpnwjVpr2P2jS1aWrTBqM2TW3aqr9Kbdri+Ss+rzbtcdSm3ecF39LamF1AHHHEEUccccQRRxxxxBFn9zgbkw5II4000kgjjTTSSCONNNLsh+bbyA7EEUccccQRRxxxxBFHHHHmn6c27WPUpt21aad9aNPaDrRp7cu0aeefPwqdVdykgg6poGMq6JQKOqeCLqmgayrolgpa/PqeJcW63WLlbrF2t1i9W6zfLVbwFmt4i1W8xTreYx3vufs71vEe63hf1/HntWnLrHltGsmp39K8No3k1LfAvDaN5NQ3wLw2jeTUpx9o01BQqtGD9Qa0aSgoVerBbgPaNBSU6vVgsQFtGroZU80ebDWgTUNBqWYPVtq8Nm2ZA7RpKKh+RUCbhoLqww+0aSioPvxAm4aC6sNPtGksKdbtwWYj2jSWFKv3YLkRbRpLijV8sN+INo3dlbGOD1Yc0aaxpFjHB1tObZraNLVpnwjVpr2P2jS1aWrTBqM2TW3aqr9Kbdri+Ss+rzbtcdSm3ecF39LamF1AHHHEEUccccQRRxxxxBFn9zgbkw5II4000kgjjTTSSCONNNLsh+bbyA7EEUccccQRRxxxxBFHHHHmn6c27WPUpt21aed9aNP6DrRp/cu0aW8/esSaRnIOoZxjKOcUyjmHci6hnGso5xbKWfzoHgWlGt1SlW6pTrdUqVuq1S1V65bqdUsVu6Wa3VPN7rG7OtXsnmp2X9Xs5/Voi6h5OxqIKd/QvBsNxJTnft6MBmLKMz/vRQMx5XkHVjSSE+pxvcaAEo3khKpc7zDgQyM5oTbXCwzI0Mg9GOpzvb2ACY3khPpcr655DdoiBljQSE75eoADjeSUxx0Y0EhOedyB/4zklMed2M9QUKrR9QYj6jMUlCp1vcSI9wwFpXpd7zEiPUM3Y6rZ9SojxjMUlGp2vc3Unak7U3f2iVDd2fuoO1N3pu5sMOrO1J2t+qvUnS2ev+Lz6s4eR93ZfV7w7aqNWQHEEUccccQRRxxxxBFHHHF2j7MxWYA00kgjjTTSSCONNNJII81+aL6NpEAcccQRRxxxxBFHHHHEEWf+eerOPkbd2V13dtmH7uywA93Z4Qt1Z2+nkO8MBB1SQcdU0CkVdE4FXVJB11TQLRX0y8/tSVKs2y1W7hZrd4vVu8X63WIFb7GGt1jFW6zjPdbxnru/Yx3vsY73dR1fo0F7zCIetPmc+i0RE9p8Tn0LEBfafE59AxAb2nxOffqRDw0EpRo9WG9IiQaCUqUe7DZkRQNBqV4PFhsSo4GbMdXswVZDbjQQlGr2YKURPdpjDvKjgaD6FSFDGgiqDz9ypIGg+vAjSxoIqg8/86SRpFi3B5uNqdJIUqzeg+XGbGkkKdbwwX5jwjRyV8Y6PlhxzJlGkmIdH2w5tWlq09SmfSJUm/Y+atPUpqlNG4zaNLVpq/4qtWmL56/4vNq0x1Gbdp8XfEtrY3YBccQRRxxxxBFHHHHEEUec3eNsTDogjTTSSCONNNJII4000kizH5pvIzsQRxxxxBFHHHHEEUccccSZf57atI9Rm3bXpl33oU077kCbdvwybdr5549CZxU3qaBDKuiYCjqlgs6poEsq6JoKuqWCFr++Z0mxbrdYuVus3S1W7xbrd4sVvMUa3mIVb7GO91jHe+7+jnW8xzre13X8eW3aMmtem0Zy6rc0r00jOfUtMK9NIzn1DTCvTSM59ekH2jQUlGr0YL0BbRoKSpV6sNuANg0FpXo9WGxAm4ZuxlSzB1sNaNNQUKrZg5U2r01b5gBtGgqqXxHQpqGg+vADbRoKqg8/0KahoPrwE20aS4p1e7DZiDaNJcXqPVhuRJvGkmINH+w3ok1jd2Ws44MVR7RpLCnW8cGWU5umNk1t2idCtWnvozZNbZratMGoTVObtuqvUpu2eP6Kz6tNexy1afd5wbe0NmYXEEccccQRRxxxxBFHHHHE2T3OxqQD0kgjjTTSSCONNNJII400+6H5NrIDccQRRxxxxBFHHHHEEUec+eepTfsYtWl3bdptH9q00w60aacv06a9/egRaxrJOYRyjqGcUyjnHMq5hHKuoZxbKGfxo3sUlGp0S1W6pTrdUqVuqVa3VK1bqtctVeyWanZPNbvH7upUs3uq2X1Vs5/Xoy2i5u1oIKZ8Q/NuNBBTnvt5MxqIKc/8vBcNxJTnHVjRSE6ox/UaA0o0khOqcr3DgA+N5ITaXC8wIEMj92Coz/X2AiY0khPqc7265jVoixhgQSM55esBDjSSUx53YEAjOeVxB/4zklMed2I/Q0GpRtcbjKjPUFCq1PUSI94zFJTqdb3HiPQM3YypZterjBjPUFCq2fU2U3em7kzd2SdCdWfvo+5M3Zm6s8GoO1N3tuqvUne2eP6Kz6s7exx1Z/d5wberNmYFEEccccQRRxxxxBFHHHHE2T3OxmQB0kgjjTTSSCONNNJII400+6H5NpICccQRRxxxxBFHHHHEEUec+eepO/sYdWe/687O+7CdnXdgOztrO9N29sc/std2pu1M25m2s2eCtJ1pO9N2pu1M25m2M21n2s5WLS5tZ9rOngrSdvbHQdrO/jhI29kfB2k7q2C0nWk7+3W0nf2Or+3s19F29sxoO1v3eW1n2s5W/VXazhbPX/F5bWePo+3sPi/4ctXGpADiiCOOOOKII4444ogjjji7x9mYK0AaaaSRRhpppJFGGmmkkWY/NN/GUSCOOOKII4444ogjjjjiiDP/PG1nH6Pt7G47e9uH7uyyA93Z5Qt1Z2+nkO8MBB1SQcdU0CkVdE4FXVJB11TQLRX0y8/tSVKs2y1W7hZrd4vVu8X63WIFb7GGt1jFW6zjPdbxnru/Yx3vsY73dR1fo0F7zCIetPmc+i0RE9p8Tn0LEBfafE59AxAb2nxOffqRDw0EpRo9WG9IiQaCUqUe7DZkRQNBqV4PFhsSo4GbMdXswVZDbjQQlGr2YKURPdpjDvKjgaD6FSFDGgiqDz9ypIGg+vAjSxoIqg8/86SRpFi3B5uNqdJIUqzeg+XGbGkkKdbwwX5jwjRyV8Y6PlhxzJlGkmIdH2w5tWlq09SmfSJUm/Y+atPUpqlNG4zaNLVpq/4qtWmL56/4vNq0x1Gbdp8XfEtrY3YBccQRRxxxxBFHHHHEEUec3eNsTDogjTTSSCONNNJII4000kizH5pvIzsQRxxxxBFHHHHEEUccccSZf57atI9Rm3bXprV9aNOuO9CmXb9Mm3b++aPQWcVNKuiQCjqmgk6poHMq6JIKuqaCbqmgxa/vWVKs2y1W7hZrd4vVu8X63WIFb7GGt1jFW6zjPdbxnru/Yx3vsY73dR1/Xpu2zJrXppGc+i3Na9NITn0LzGvTSE59A8xr00hOffqBNg0FpRo9WG9Am4aCUqUe7DagTUNBqV4PFhvQpqGbMdXswVYD2jQUlGr2YKXNa9OWOUCbhoLqVwS0aSioPvxAm4aC6sMPtGkoqD78RJvGkmLdHmw2ok1jSbF6D5Yb0aaxpFjDB/uNaNPYXRnr+GDFEW0aS4p1fLDl1KapTVOb9olQbdr7qE1Tm6Y2bTBq09Smrfqr1KYtnr/i82rTHkdt2n1e8C2tjdkFxBFHHHHEEUccccQRRxxxdo+zMemANNJII4000kgjjTTSSCPNfmi+jexAHHHEEUccccQRRxxxxBFn/nlq0z5Gbdpdm9b3oU277UCbdvsybdrbjx6xppGcQyjnGMo5hXLOoZxLKOcayrmFchY/ukdBqUa3VKVbqtMtVeqWanVL1bqlet1SxW6pZvdUs3vsrk41u6ea3Vc1+3k92iJq3o4GYso3NO9GAzHluZ83o4GY8szPe9FATHnegRWN5IR6XK8xoEQjOaEq1zsM+NBITqjN9QIDMjRyD4b6XG8vYEIjOaE+16trXoO2iAEWNJJTvh7gQCM55XEHBjSSUx534D8jOeVxJ/YzFJRqdL3BiPoMBaVKXS8x4j1DQale13uMSM/QzZhqdr3KiPEMBaWaXW8zdWfqztSdfSJUd/Y+6s7Unak7G4y6M3Vnq/4qdWeL56/4vLqzx1F3dp8XfLtqY1YAccQRRxxxxBFHHHHEEUec3eNsTBYgjTTSSCONNNJII4000kizH5pvIykQRxxxxBFHHHHEEUccccSZf566s49Rd3bXnR12oTu7vW1fd/ZXxq/Tnb2dQr4zEHRIBR1TQadU0DkVdEkFXVNBt1TQLz+3J0mxbrdYuVus3S1W7xbrd4sVvMUa3mIVb7GO91jHe+7+jnW8xzre13V8jQbtMYt40OZz6rdETGjzOfUtQFxo8zn1DUBsaPM59elHPjQQlGr0YL0hJRoISpV6sNuQFQ0EpXo9WGxIjAZuxlSzB1sNudFAUKrZg5VG9GiPOciPBoLqV4QMaSCoPvzIkQaC6sOPLGkgqD78zJNGkmLdHmw2pkojSbF6D5Ybs6WRpFjDB/uNCdPIXRnr+GDFMWcaSYp1fLDl1KapTVOb9olQbdr7qE1Tm6Y2bTBq09Smrfqr1KYtnr/i82rTHkdt2n1e8C2tjdkFxBFHHHHEEUccccQRRxxxdo+zMemANNJII4000kgjjTTSSCPNfmi+jexAHHHEEUccccQRRxxxxBFn/nlq0z5Gbdpdm3bchzat7UCb1r5Mm3b++aPQWcVNKuiQCjqmgk6poHMq6JIKuqaCbqmgxa/vWVKs2y1W7hZrd4vVu8X63WIFb7GGt1jFW6zjPdbxnru/Yx3vsY73dR1/Xpu2zJrXppGc+i3Na9NITn0LzGvTSE59A8xr00hOffqBNg0FpRo9WG9Am4aCUqUe7DagTUNBqV4PFhvQpqGbMdXswVYD2jQUlGr2YKXNa9OWOUCbhoLqVwS0aSioPvxAm4aC6sMPtGkoqD78RJvGkmLdHmw2ok1jSbF6D5Yb0aaxpFjDB/uNaNPYXRnr+GDFEW0aS4p1fLDl1KapTVOb9olQbdr7qE1Tm6Y2bTBq09Smrfqr1KYtnr/i82rTHkdt2n1e8C2tjdkFxBFHHHHEEUccccQRRxxxdo+zMemANNJII4000kgjjTTSSCPNfmi+jexAHHHEEUccccQRRxxxxBFn/nlq0z5Gbdpdm3bahzat70Cb1r9Mm/b2o0esaSTnEMo5hnJOoZxzKOcSyrmGcm6hnMWP7lFQqtEtVemW6nRLlbqlWt1StW6pXrdUsVuq2T3V7B67q1PN7qlm91XNfl6Ptoiat6OBmPINzbvRQEx57ufNaCCmPPPzXjQQU553YEUjOaEe12sMKNFITqjK9Q4DPjSSE2pzvcCADI3cg6E+19sLmNBITqjP9eqa16AtYoAFjeSUrwc40EhOedyBAY3klMcd+M9ITnncif0MBaUaXW8woj5DQalS10uMeM9QUKrX9R4j0jN0M6aaXa8yYjxDQalm19tM3Zm6M3VnnwjVnb2PujN1Z+rOBqPuTN3Zqr9K3dni+Ss+r+7scdSd3ecF367amBVAHHHEEUccccQRRxxxxBFn9zgbkwVII4000kgjjTTSSCONNNLsh+bbSArEEUccccQRRxxxxBFHHHHmn6fu7GPUnd11Z+d96M4OO9CdHb5Qd/Z2CvnOQNAhFXRMBZ1SQedU0CUVdE0F3VJBv/zcniTFut1i5W6xdrdYvVus3y1W8BZreItVvMU63mMd77n7O9bxHut4X9fxNRq0xyziQZvPqd8SMaHN59S3AHGhzefUNwCxoc3n1Kcf+dBAUKrRg/WGlGggKFXqwW5DVjQQlOr1YLEhMRq4GVPNHmw15EYDQalmD1Ya0aM95iA/GgiqXxEypIGg+vAjRxoIqg8/sqSBoPrwM08aSYp1e7DZmCqNJMXqPVhuzJZGkmINH+w3Jkwjd2Ws44MVx5xpJCnW8cGWU5umNk1t2idCtWnvozZNbZratMGoTVObtuqvUpu2eP6Kz6tNexy1afd5wbe0NmYXEEccccQRRxxxxBFHHHHE2T3OxqQD0kgjjTTSSCONNNJII400+6H5NrIDccQRRxxxxBFHHHHEEUec+eepTfsYtWl3bdplH9q04w60accv06adf/4odFZxkwo6pIKOqaBTKuicCrqkgq6poFsqaPHre5YU63aLlbvF2t1i9W6xfrdYwVus4S1W8RbreI91vOfu71jHe6zjfV3Hn9emLbPmtWkkp35L89o0klPfAvPaNJJT3wDz2jSSU59+oE1DQalGD9Yb0KahoFSpB7sNaNNQUKrXg8UGtGnoZkw1e7DVgDYNBaWaPVhp89q0ZQ7QpqGg+hUBbRoKqg8/0KahoPrwA20aCqoPP9GmsaRYtwebjWjTWFKs3oPlRrRpLCnW8MF+I9o0dlfGOj5YcUSbxpJiHR9sObVpatPUpn0iVJv2PmrT1KapTRuM2jS1aav+KrVpi+ev+LzatMdRm3afF3xLa2N2AXHEEUccccQRRxxxxBFHnN3jbEw6II000kgjjTTSSCONNNJIsx+abyM7EEccccQRRxxxxBFHHHHEmX+e2rSPUZt216Zd96FNO+1Am3b6Mm3a248esaaRnEMo5xjKOYVyzqGcSyjnGsq5hXIWP7pHQalGt1SlW6rTLVXqlmp1S9W6pXrdUsVuqWb3VLN77K5ONbunmt1XNft5Pdoiat6OBmLKNzTvRgMx5bmfN6OBmPLMz3vRQEx53oEVjeSEelyvMaBEIzmhKtc7DPjQSE6ozfUCAzI0cg+G+lxvL2BCIzmhPtera16DtogBFjSSU74e4EAjOeVxBwY0klMed+A/IznlcSf2MxSUanS9wYj6DAWlSl0vMeI9Q0GpXtd7jEjP0M2Yana9yojxDAWlml1vM3Vn6s7UnX0iVHf2PurO1J2pOxuMujN1Z6v+KnVni+ev+Ly6s8dRd3afF3y7amNWAHHEEUccccQRRxxxxBFHnN3jbEwWII000kgjjTTSSCONNNJIsx+abyMpEEccccQRRxxxxBFHHHHEmX+eurOPUXd2153d9qE7O+9Ad3b+Qt3Z2ynkOwNBh1TQMRV0SgWdU0GXVNA1FXRLBf3yc3uSFOt2i5W7xdrdYvVusX63WMFbrOEtVvEW63iPdbzn7u9Yx3us431dx9do0B6ziAdtPqd+S8SENp9T3wLEhTafU98AxIY2n1OffuRDA0GpRg/WG1KigaBUqQe7DVnRQFCq14PFhsRo4GZMNXuw1ZAbDQSlmj1YaUSP9piD/GggqH5FyJAGgurDjxxpIKg+/MiSBoLqw888aSQp1u3BZmOqNJIUq/dguTFbGkmKNXyw35gwjdyVsY4PVhxzppGkWMcHW05tmto0tWmfCNWmvY/aNLVpatMGozZNbdqqv0pt2uL5Kz6vNu1x1Kbd5wXf0tqYXUAcccQRRxxxxBFHHHHEEWf3OBuTDkgjjTTSSCONNNJII4000uyH5tvIDsQRRxxxxBFHHHHEEUccceafpzbtY9Sm/a5Nu+zDmnbZgTXtojVtLkhr2h8HaU17KklrmtY0rWla07SmaU3TmqY1TWva37wZtab9cZDWtD8M0pqmNU1rmtY0rWlPJWlNG43WtL89z/zfp7WmjaO1pv2OrzXt19Ga9sxoTVv3ea1pWtNW/VVa0xbPX/F5rWmPozXtPi/4ktbG5ALiiCOOOOKII4444ogjjji7x9mYc0AaaaSRRhpppJFGGmmkkWY/NN/GdSCOOOKII4444ogjjjjiiDP/PK1pH6M17W5Ne9uHNu26A23a9cu0aeefPwqdVdykgg6poGMq6JQKOqeCLqmgayrolgpa/PqeJcW63WLlbrF2t1i9W6zfLVbwFmt4i1W8xTreYx3vufs71vEe63hf1/HntWnLrHltGsmp39K8No3k1LfAvDaN5NQ3wLw2jeTUpx9o01BQqtGD9Qa0aSgoVerBbgPaNBSU6vVgsQFtGroZU80ebDWgTUNBqWYPVtq8Nm2ZA7RpKKh+RUCbhoLqww+0aSioPvxAm4aC6sNPtGksKdbtwWYj2jSWFKv3YLkRbRpLijV8sN+INo3dlbGOD1Yc0aaxpFjHB1tObZraNLVpnwjVpr2P2jS1aWrTBqM2TW3aqr9Kbdri+Ss+rzbtcdSm3ecF39LamF1AHHHEEUccccQRRxxxxBFn9zgbkw5II4000kgjjTTSSCONNNLsh+bbyA7EEUccccQRRxxxxBFHHHHmn6c27WPUpt21aW0f2rTbDrRpty/Tpr396BFrGsk5hHKOoZxTKOccyrmEcq6hnFsoZ/GjexSUanRLVbqlOt1SpW6pVrdUrVuq1y1V7JZqdk81u8fu6lSze6rZfVWzn9ejLaLm7WggpnxD8240EFOe+3kzGogpz/y8Fw3ElOcdWNFITqjH9RoDSjSSE6pyvcOAD43khNpcLzAgQyP3YKjP9fYCJjSSE+pzvbrmNWiLGGBBIznl6wEONJJTHndgQCM55XEH/jOSUx53Yj9DQalG1xuMqM9QUKrU9RIj3jMUlOp1vceI9AzdjKlm16uMGM9QUKrZ9TZTd6buTN3ZJ0J1Z++j7kzdmbqzwag7U3e26q9Sd7Z4/orPqzt7HHVn93nBt6s2ZgUQRxxxxBFHHHHEEUccccTZPc7GZAHSSCONNNJII4000kgjjTT7ofk2kgJxxBFHHHHEEUccccQRR5z556k7+xh1Z3fdWd+F7qy9vW3fd/YO+XXCs7dTyHgGgg6poGMq6JQKOqeCLqmgayrolgr65Qf3JCnW7RYrd4u1u8Xq3WL9brGCt1jDW6ziLdbxHut4z93fsY73WMf7uo6vEaE9ZhET2nxO/ZaIC20+p74FiA1tPqe+AYgPbT6nPv3IiAaCUo0erDckRQNBqVIPdhvyooGgVK8Hiw2p0cDNmGr2YKshOxoISjV7sNKIIO0xBxnSQFD9ipAjDQTVhx9Z0kBQffiRJw0E1YefmdJIUqzbg83GZGkkKVbvwXJjvjSSFGv4YL8xZRq5K2MdH6w4Zk0jSbGOD7ac4jTFaYrTPhEqTnsfxWmK0xSnDUZxmuK0VX+V4rTF81d8XnHa4yhOu88Lvqe1Mb+AOOKII4444ogjjjjiiCPO7nE2ph2QRhpppJFGGmmkkUYaaaTZD8230R2II4444ogjjjjiiCOOOOLMP09x2scoTruL0w47Eae1PYjT2peJ084/fxY6K7lJBR1SQcdU0CkVdE4FXVJB11TQLRW0+P09S4p1u8XK3WLtbrF6t1i/W6zgLdbwFqt4i3W8xzrec/d3rOM91vG+ruPPi9OWWfPiNJJTv6V5cRrJqW+BeXEayalvgHlxGsmpTz8Qp6GgVKMH6w2I01BQqtSD3QbEaSgo1evBYgPiNHQzppo92GpAnIaCUs0erLR5cdoyB4jTUFD9ioA4DQXVhx+I01BQffiBOA0F1YefiNNYUqzbg81GxGksKVbvwXIj4jSWFGv4YL8RcRq7K2MdH6w4Ik5jSbGOD7ac4jTFaYrTPhEqTnsfxWmK0xSnDUZxmuK0VX+V4rTF81d8XnHa4yhOu88Lvqe1Mb+AOOKII4444ogjjjjiiCPO7nE2ph2QRhpppJFGGmmkkUYaaaTZD8230R2II4444ogjjjjiiCOOOOLMP09x2scoTruL0447Eaf1PYjTuuK0uSDFaX8cpDjtqSTFaYrTFKcpTlOcpjhNcZriNMVpf/NmVJz2x0GK0/4wSHGa4jTFaYrTYkmK055LUpxWwyhOU5z26yhO+x1fcdqvozjtmVGctu7zitMUp636qxSnLZ6/4vOK0x5Hcdp9XvA9rY35BcQRRxxxxBFHHHHEEUcccXaPszHtgDTSSCONNNJII4000kgjzX5ovo3uQBxxxBFHHHHEEUccccQRZ/55itM+RnHa7+K06068aYc9eNMOX+ZNe/vRI9o0knMI5RxDOadQzjmUcwnlXEM5t1DO4lf3KCjV6JaqdEt1uqVK3VKtbqlat1SvW6rYLdXsnmp2j93VqWb3VLP7qmY/70dbRM3r0UBM+Ybm5Wggpjz382o0EFOe+XkxGogpzzvQopGcUI/rNQacaCQnVOV6hwEhGskJtbleYMCGRu7BUJ/r7QVUaCQn1Od6dc170BYxQINGcsrXAyRoJKc87kCBRnLK4w4EaCSnPO5Ef4aCUo2uNxhxn6GgVKnrJUbEZygo1et6jxHrGboZU82uVxlRnqGgVLPrbabvTN+ZvrNPhPrO3kffmb4zfWeD0Xem72zVX6XvbPH8FZ/Xd/Y4+s7u84KvV21MCyCOOOKII4444ogjjjjiiLN7nI3ZAqSRRhpppJFGGmmkkUYaafZD820sBeKII4444ogjjjjiiCOOOPPP03f2MfrOfved3XbiOzvuwXd2/DLfWTu+/Xh7mHaM6M+CsYfXxB5fE3t6Tez5NbGX18ReXxN7e03s4tf+ydwXnbP2ooPWXnTS2ouOWnvRWWsvOmztRaetvei4tRedt/6i89ZftddedN76i85bJ+ftea/cKHleM5dLffbtzkvocqnP3mTzirpc6rO32LzALpf67A0G9HbB2Necrqf/uQBceMHY1xywp/+tAMR5wdjXnLGn/6EALHvBrfCaU/b0vxKAki8Y+5pT9vQ/Eeb9faNUoPMLxj77aoHsLxj77AUGVIDB2GcvMCAKDMY+e4ERjWAy90Xn7Ol/KRDnYDL3RUft6X8sEEFhMvdFp+3pfy8Qm2FyT7zovD39TwaiPkzmvui8Pf2vBj2JehL1JH4i1JP4PnoS9STqSRyMnkQ9iav+Kj2Ji+ev+LyexMfRk3ifF3wtc2M6EXHEEUccccQRRxxxxBFHnN3jbMwyIo000kgjjTTSSCONNNJIsx+ab2M3EUccccQRRxxxxBFHHHHEmX/efwdP4v/z2z/+l9/+8vf/8l//8tvf/Y//7n9Sm7gtbeJvf/lvf/qH3/7u//379+b9n3/+83/5u/f/D3v/nvPx7d/tRKF42oNC8fRlCsXz7cftYa63iEExl3p4SerxJamnl6SeX5J6eUnq9SWpt5ekLgQHwdjXnK72muPVXnO+2msOWHvNCWuvOWLtNWesveaQtdecsv6aU9ZftMNec8r6a05ZB6fseVXiIHjelBgLffLNznsSY6FP3l3zlsRY6JP31rwjMRb65J0FDIm51JecqWf/WQD0iLnUlxyrZ/9NANyIudSXnKxn/0EAxIi5HfCSs/XsvwaAFTGX+pKz9ew/BeaViINQYETMpT75WoEPMZf65JUFbIi51CevLOBCzKU+eWURE2Iw9jWn69l/ERANYjD2NQfs2X8UEAdiMPY1Z+zZfxcQAWJwK7zmlD37TwNiPwzGvuaUPfuvA9WHqg9VH34iVH34PqoPVR+qPhyM6kPVh6v+KtWHi+ev+Lzqw8dRfXifF3zTcmOGEHHEEUccccQRRxxxxBFHnN3jbEwcIo000kgjjTTSSCONNNJIsx+abyMsEUccccQRRxxxxBFHHHHEmX+e6sO/Pd9WffhvysP/47ef/+N//cd//6ff/ulf/k1++H//w3/67T/817++///57y67kSCe9yBBPH+ZBPHnT09nJUyhnEMo5xjKOYVyzqGcSyjnGsq5hXIWdgEUlGp0S1W6pTrdUqVuqVa3VK1bqtctVeyWanZPNbvH7upUs3uq2X1Vs5+X9i2i5jV9IKZ8Q/MqPhBTnvt53R6IKc/8vFIPxJTnHWjzSE6ox/UaAzI8khOqcr3DgOKO5ITaXC8wIK4j92Coz/X2Ajo6khPqc7265iVzixiglSM55esB6jiSUx53oIcjOeVxBwo4klMed6J5Q0GpRtcbjMjbUFCq1PUSI0o2FJTqdb3HiGgN3YypZterjOjTUFCq2fU2U4q2Cyma/9n/7H/2P/uf/c/+Z/+z/9n/7H/2P/uf/c/+Z/+z/3lL//lff/z5v/32l7/86T/89n/9/fv/oar9eFOK//CXKMW/j1L8VaMUXyn+ilGK/+soxf91lOKvHKX4SvH/5ijFF0ccccQRRxxxxBFHHHHEEWcPSklppJFGGmmkkUYaaaSRRpr90HwblaU44ogjjjjiiCOOOOKII8788/47SPH/tz/942//9M9/+vM//eff/vmfVeJvS4n/57/8f3/3v//H//inf/jTb//0D/96F+F/rQL/49O//JfH//fv//u//c97+sf/cv8f//7P/+Ff3//nf/qXf/zP/8v/8P8DXmMUJQ=="
               },
               {
                  "name" : "annual_peak_electric_demand",
                  "units" : "kW",
                  "value" : 54.47681
               },
               {
                  "name" : "first_year_capital_cost",
                  "units" : "$",
                  "value" : 0
               },
               {
                  "name" : "annual_utility_cost",
                  "units" : "$",
                  "value" : 24625.580000000002
               },
               {
                  "name" : "total_lifecycle_cost",
                  "units" : "$",
                  "value" : 418901.17999999999
               }
            ],
            "step_warnings" : []
         }
      }
   ],
   "updated_at" : "20170710T192730Z",
   "weather_file" : "USA_CO_Denver.Intl.AP.725650_TMY3.epw"
}
