{
   "completed_at" : "20170710T184046Z",
   "completed_status" : "Success",
   "created_at" : "2017-07-10 18:32:50 +0000",
   "current_step" : 5,
   "description" : "",
   "eplusout_err" : "Program Version,EnergyPlus, Version 8.7.0-78a111df4a, YMD=2017.07.10 18:36,IDD_Version 8.7.0\n   ************* IDF Context for following error/warning message:\n   ************* Note -- lines truncated at 300 characters, if necessary...\n   *************      5 Building,\n   ************* indicated Name=NECB 2011-PrimarySchool-NECB HDD Method-CAN_ON_Timmins.717390_CWEC.epw created: 2017-07-10 18:32:56 +0000\n   ************* Only last 1 lines before error line shown.....\n   *************      6   NECB 2011-PrimarySchool-NECB HDD Method-CAN_ON_Timmins.717390_CWEC.epw created: 2017-07-10 18:32:56 +0000, !- Name\n   ** Warning ** IP: IDF line~6 Alpha Argument length exceeds maximum, will be truncated=  NECB 2011-PrimarySchool-NECB HDD Method-CAN_ON_Timmins.717390_CWEC.epw created: 2017-07-10 18:32:56 +000\n   **   ~~~   ** Will be processed as Alpha=NECB 2011-PRIMARYSCHOOL-NECB HDD METHOD-CAN_ON_TIMMINS.717390_CWEC.EPW CREATED: 2017-07-10 18:32:56 +0000\n   ************* IDF Context for following error/warning message:\n   ************* Note -- lines truncated at 300 characters, if necessary...\n   *************   1058 Schedule:Week:Daily,\n   ************* indicated Name=Schedule:Week:Daily {3b458e80-58fc-4592-b4df-55329cdab442}\n   ************* Only last 10 lines before error line shown.....\n   *************   1059   Schedule:Week:Daily {3b458e80-58fc-4592-b4df-55329cdab442}, !- Name\n   *************   1060   Sp-Cafeteria_ZN_1_FLR_1 Sys-3 Flr-1 Sch-C HPlcmt-north ZN NECB System 3 PSZ Occ Sch Sunday, !- Sunday Schedule:Day Name\n   *************   1061   Sp-Cafeteria_ZN_1_FLR_1 Sys-3 Flr-1 Sch-C HPlcmt-north ZN NECB System 3 PSZ Occ Sch Monday, !- Monday Schedule:Day Name\n   *************   1062   Sp-Cafeteria_ZN_1_FLR_1 Sys-3 Flr-1 Sch-C HPlcmt-north ZN NECB System 3 PSZ Occ Sch Tuesday, !- Tuesday Schedule:Day Name\n   *************   1063   Sp-Cafeteria_ZN_1_FLR_1 Sys-3 Flr-1 Sch-C HPlcmt-north ZN NECB System 3 PSZ Occ Sch Wednesday, !- Wednesday Schedule:Day Name\n   *************   1064   Sp-Cafeteria_ZN_1_FLR_1 Sys-3 Flr-1 Sch-C HPlcmt-north ZN NECB System 3 PSZ Occ Sch Thursday, !- Thursday Schedule:Day Name\n   *************   1065   Sp-Cafeteria_ZN_1_FLR_1 Sys-3 Flr-1 Sch-C HPlcmt-north ZN NECB System 3 PSZ Occ Sch Friday, !- Friday Schedule:Day Name\n   *************   1066   Sp-Cafeteria_ZN_1_FLR_1 Sys-3 Flr-1 Sch-C HPlcmt-north ZN NECB System 3 PSZ Occ Sch Saturday, !- Saturday Schedule:Day Name\n   *************   1067   Sp-Cafeteria_ZN_1_FLR_1 Sys-3 Flr-1 Sch-C HPlcmt-north ZN NECB System 3 PSZ Occ Sch Default, !- Holiday Schedule:Day Name\n   *************   1068   Sp-Cafeteria_ZN_1_FLR_1 Sys-3 Flr-1 Sch-C HPlcmt-north ZN NECB System 3 PSZ Occ Sch Summer Design Day, !- SummerDesignDay Schedule:Day Name\n   ** Warning ** IP: IDF line~1068 Alpha Argument length exceeds maximum, will be truncated=  Sp-Cafeteria_ZN_1_FLR_1 Sys-3 Flr-1 Sch-C HPlcmt-north ZN NECB System 3 PSZ Occ Sch Summer Design Da\n   **   ~~~   ** Will be processed as Alpha=SP-CAFETERIA_ZN_1_FLR_1 SYS-3 FLR-1 SCH-C HPLCMT-NORTH ZN NECB SYSTEM 3 PSZ OCC SCH SUMMER DESIGN DAY\n   ************* IDF Context for following error/warning message:\n   ************* Note -- lines truncated at 300 characters, if necessary...\n   *************   1058 Schedule:Week:Daily,\n   ************* indicated Name=Schedule:Week:Daily {3b458e80-58fc-4592-b4df-55329cdab442}\n   ************* Only last 10 lines before error line shown.....\n   *************   1060   Sp-Cafeteria_ZN_1_FLR_1 Sys-3 Flr-1 Sch-C HPlcmt-north ZN NECB System 3 PSZ Occ Sch Sunday, !- Sunday Schedule:Day Name\n   *************   1061   Sp-Cafeteria_ZN_1_FLR_1 Sys-3 Flr-1 Sch-C HPlcmt-north ZN NECB System 3 PSZ Occ Sch Monday, !- Monday Schedule:Day Name\n   *************   1062   Sp-Cafeteria_ZN_1_FLR_1 Sys-3 Flr-1 Sch-C HPlcmt-north ZN NECB System 3 PSZ Occ Sch Tuesday, !- Tuesday Schedule:Day Name\n   *************   1063   Sp-Cafeteria_ZN_1_FLR_1 Sys-3 Flr-1 Sch-C HPlcmt-north ZN NECB System 3 PSZ Occ Sch Wednesday, !- Wednesday Schedule:Day Name\n   *************   1064   Sp-Cafeteria_ZN_1_FLR_1 Sys-3 Flr-1 Sch-C HPlcmt-north ZN NECB System 3 PSZ Occ Sch Thursday, !- Thursday Schedule:Day Name\n   *************   1065   Sp-Cafeteria_ZN_1_FLR_1 Sys-3 Flr-1 Sch-C HPlcmt-north ZN NECB System 3 PSZ Occ Sch Friday, !- Friday Schedule:Day Name\n   *************   1066   Sp-Cafeteria_ZN_1_FLR_1 Sys-3 Flr-1 Sch-C HPlcmt-north ZN NECB System 3 PSZ Occ Sch Saturday, !- Saturday Schedule:Day Name\n   *************   1067   Sp-Cafeteria_ZN_1_FLR_1 Sys-3 Flr-1 Sch-C HPlcmt-north ZN NECB System 3 PSZ Occ Sch Default, !- Holiday Schedule:Day Name\n   *************   1068   Sp-Cafeteria_ZN_1_FLR_1 Sys-3 Flr-1 Sch-C HPlcmt-north ZN NECB System 3 PSZ Occ Sch Summer Design Day, !- SummerDesignDay Schedule:Day Name\n   *************   1069   Sp-Cafeteria_ZN_1_FLR_1 Sys-3 Flr-1 Sch-C HPlcmt-north ZN NECB System 3 PSZ Occ Sch Winter Design Day, !- WinterDesignDay Schedule:Day Name\n   ** Warning ** IP: IDF line~1069 Alpha Argument length exceeds maximum, will be truncated=  Sp-Cafeteria_ZN_1_FLR_1 Sys-3 Flr-1 Sch-C HPlcmt-north ZN NECB System 3 PSZ Occ Sch Winter Design Da\n   **   ~~~   ** Will be processed as Alpha=SP-CAFETERIA_ZN_1_FLR_1 SYS-3 FLR-1 SCH-C HPLCMT-NORTH ZN NECB SYSTEM 3 PSZ OCC SCH WINTER DESIGN DAY\n   ************* IDF Context for following error/warning message:\n   ************* Note -- lines truncated at 300 characters, if necessary...\n   *************   1089 Schedule:Day:Interval,\n   ************* indicated Name=Sp-Cafeteria_ZN_1_FLR_1 Sys-3 Flr-1 Sch-C HPlcmt-north ZN NECB System 3 PSZ Occ Sch Summer Design Day\n   ************* Only last 1 lines before error line shown.....\n   *************   1090   Sp-Cafeteria_ZN_1_FLR_1 Sys-3 Flr-1 Sch-C HPlcmt-north ZN NECB System 3 PSZ Occ Sch Summer Design Day, !- Name\n   ** Warning ** IP: IDF line~1090 Alpha Argument length exceeds maximum, will be truncated=  Sp-Cafeteria_ZN_1_FLR_1 Sys-3 Flr-1 Sch-C HPlcmt-north ZN NECB System 3 PSZ Occ Sch Summer Design Da\n   **   ~~~   ** Will be processed as Alpha=SP-CAFETERIA_ZN_1_FLR_1 SYS-3 FLR-1 SCH-C HPLCMT-NORTH ZN NECB SYSTEM 3 PSZ OCC SCH SUMMER DESIGN DAY\n   ************* IDF Context for following error/warning message:\n   ************* Note -- lines truncated at 300 characters, if necessary...\n   *************   1096 Schedule:Day:Interval,\n   ************* indicated Name=Sp-Cafeteria_ZN_1_FLR_1 Sys-3 Flr-1 Sch-C HPlcmt-north ZN NECB System 3 PSZ Occ Sch Winter Design Day\n   ************* Only last 1 lines before error line shown.....\n   *************   1097   Sp-Cafeteria_ZN_1_FLR_1 Sys-3 Flr-1 Sch-C HPlcmt-north ZN NECB System 3 PSZ Occ Sch Winter Design Day, !- Name\n   ** Warning ** IP: IDF line~1097 Alpha Argument length exceeds maximum, will be truncated=  Sp-Cafeteria_ZN_1_FLR_1 Sys-3 Flr-1 Sch-C HPlcmt-north ZN NECB System 3 PSZ Occ Sch Winter Design Da\n   **   ~~~   ** Will be processed as Alpha=SP-CAFETERIA_ZN_1_FLR_1 SYS-3 FLR-1 SCH-C HPLCMT-NORTH ZN NECB SYSTEM 3 PSZ OCC SCH WINTER DESIGN DAY\n   ************* IDF Context for following error/warning message:\n   ************* Note -- lines truncated at 300 characters, if necessary...\n   *************   1450 Schedule:Week:Daily,\n   ************* indicated Name=Schedule:Week:Daily {f0af7ea7-4986-4de3-a814-be9f7da7ed98}\n   ************* Only last 10 lines before error line shown.....\n   *************   1451   Schedule:Week:Daily {f0af7ea7-4986-4de3-a814-be9f7da7ed98}, !- Name\n   *************   1452   Sp-Computer_Class_ZN_1_FLR_1 Sys-3 Flr-1 Sch-D HPlcmt-north ZN NECB System 3 PSZ Occ Sch Sunday, !- Sunday Schedule:Day Name\n   *************   1453   Sp-Computer_Class_ZN_1_FLR_1 Sys-3 Flr-1 Sch-D HPlcmt-north ZN NECB System 3 PSZ Occ Sch Monday, !- Monday Schedule:Day Name\n   *************   1454   Sp-Computer_Class_ZN_1_FLR_1 Sys-3 Flr-1 Sch-D HPlcmt-north ZN NECB System 3 PSZ Occ Sch Tuesday, !- Tuesday Schedule:Day Name\n   *************   1455   Sp-Computer_Class_ZN_1_FLR_1 Sys-3 Flr-1 Sch-D HPlcmt-north ZN NECB System 3 PSZ Occ Sch Wednesday, !- Wednesday Schedule:Day Name\n   *************   1456   Sp-Computer_Class_ZN_1_FLR_1 Sys-3 Flr-1 Sch-D HPlcmt-north ZN NECB System 3 PSZ Occ Sch Thursday, !- Thursday Schedule:Day Name\n   *************   1457   Sp-Computer_Class_ZN_1_FLR_1 Sys-3 Flr-1 Sch-D HPlcmt-north ZN NECB System 3 PSZ Occ Sch Friday, !- Friday Schedule:Day Name\n   *************   1458   Sp-Computer_Class_ZN_1_FLR_1 Sys-3 Flr-1 Sch-D HPlcmt-north ZN NECB System 3 PSZ Occ Sch Saturday, !- Saturday Schedule:Day Name\n   *************   1459   Sp-Computer_Class_ZN_1_FLR_1 Sys-3 Flr-1 Sch-D HPlcmt-north ZN NECB System 3 PSZ Occ Sch Default, !- Holiday Schedule:Day Name\n   *************   1460   Sp-Computer_Class_ZN_1_FLR_1 Sys-3 Flr-1 Sch-D HPlcmt-north ZN NECB System 3 PSZ Occ Sch Summer Design Day, !- SummerDesignDay Schedule:Day Name\n   ** Warning ** IP: IDF line~1460 Alpha Argument length exceeds maximum, will be truncated=  Sp-Computer_Class_ZN_1_FLR_1 Sys-3 Flr-1 Sch-D HPlcmt-north ZN NECB System 3 PSZ Occ Sch Summer Design Da\n   **   ~~~   ** Will be processed as Alpha=SP-COMPUTER_CLASS_ZN_1_FLR_1 SYS-3 FLR-1 SCH-D HPLCMT-NORTH ZN NECB SYSTEM 3 PSZ OCC SCH SUMMER DESIGN DAY\n   ************* IDF Context for following error/warning message:\n   ************* Note -- lines truncated at 300 characters, if necessary...\n   *************   1450 Schedule:Week:Daily,\n   ************* indicated Name=Schedule:Week:Daily {f0af7ea7-4986-4de3-a814-be9f7da7ed98}\n   ************* Only last 10 lines before error line shown.....\n   *************   1452   Sp-Computer_Class_ZN_1_FLR_1 Sys-3 Flr-1 Sch-D HPlcmt-north ZN NECB System 3 PSZ Occ Sch Sunday, !- Sunday Schedule:Day Name\n   *************   1453   Sp-Computer_Class_ZN_1_FLR_1 Sys-3 Flr-1 Sch-D HPlcmt-north ZN NECB System 3 PSZ Occ Sch Monday, !- Monday Schedule:Day Name\n   *************   1454   Sp-Computer_Class_ZN_1_FLR_1 Sys-3 Flr-1 Sch-D HPlcmt-north ZN NECB System 3 PSZ Occ Sch Tuesday, !- Tuesday Schedule:Day Name\n   *************   1455   Sp-Computer_Class_ZN_1_FLR_1 Sys-3 Flr-1 Sch-D HPlcmt-north ZN NECB System 3 PSZ Occ Sch Wednesday, !- Wednesday Schedule:Day Name\n   *************   1456   Sp-Computer_Class_ZN_1_FLR_1 Sys-3 Flr-1 Sch-D HPlcmt-north ZN NECB System 3 PSZ Occ Sch Thursday, !- Thursday Schedule:Day Name\n   *************   1457   Sp-Computer_Class_ZN_1_FLR_1 Sys-3 Flr-1 Sch-D HPlcmt-north ZN NECB System 3 PSZ Occ Sch Friday, !- Friday Schedule:Day Name\n   *************   1458   Sp-Computer_Class_ZN_1_FLR_1 Sys-3 Flr-1 Sch-D HPlcmt-north ZN NECB System 3 PSZ Occ Sch Saturday, !- Saturday Schedule:Day Name\n   *************   1459   Sp-Computer_Class_ZN_1_FLR_1 Sys-3 Flr-1 Sch-D HPlcmt-north ZN NECB System 3 PSZ Occ Sch Default, !- Holiday Schedule:Day Name\n   *************   1460   Sp-Computer_Class_ZN_1_FLR_1 Sys-3 Flr-1 Sch-D HPlcmt-north ZN NECB System 3 PSZ Occ Sch Summer Design Day, !- SummerDesignDay Schedule:Day Name\n   *************   1461   Sp-Computer_Class_ZN_1_FLR_1 Sys-3 Flr-1 Sch-D HPlcmt-north ZN NECB System 3 PSZ Occ Sch Winter Design Day, !- WinterDesignDay Schedule:Day Name\n   ** Warning ** IP: IDF line~1461 Alpha Argument length exceeds maximum, will be truncated=  Sp-Computer_Class_ZN_1_FLR_1 Sys-3 Flr-1 Sch-D HPlcmt-north ZN NECB System 3 PSZ Occ Sch Winter Design Da\n   **   ~~~   ** Will be processed as Alpha=SP-COMPUTER_CLASS_ZN_1_FLR_1 SYS-3 FLR-1 SCH-D HPLCMT-NORTH ZN NECB SYSTEM 3 PSZ OCC SCH WINTER DESIGN DAY\n   ************* IDF Context for following error/warning message:\n   ************* Note -- lines truncated at 300 characters, if necessary...\n   *************   1481 Schedule:Day:Interval,\n   ************* indicated Name=Sp-Computer_Class_ZN_1_FLR_1 Sys-3 Flr-1 Sch-D HPlcmt-north ZN NECB System 3 PSZ Occ Sch Summer Design Day\n   ************* Only last 1 lines before error line shown.....\n   *************   1482   Sp-Computer_Class_ZN_1_FLR_1 Sys-3 Flr-1 Sch-D HPlcmt-north ZN NECB System 3 PSZ Occ Sch Summer Design Day, !- Name\n   ** Warning ** IP: IDF line~1482 Alpha Argument length exceeds maximum, will be truncated=  Sp-Computer_Class_ZN_1_FLR_1 Sys-3 Flr-1 Sch-D HPlcmt-north ZN NECB System 3 PSZ Occ Sch Summer Design Da\n   **   ~~~   ** Will be processed as Alpha=SP-COMPUTER_CLASS_ZN_1_FLR_1 SYS-3 FLR-1 SCH-D HPLCMT-NORTH ZN NECB SYSTEM 3 PSZ OCC SCH SUMMER DESIGN DAY\n   ************* IDF Context for following error/warning message:\n   ************* Note -- lines truncated at 300 characters, if necessary...\n   *************   1488 Schedule:Day:Interval,\n   ************* indicated Name=Sp-Computer_Class_ZN_1_FLR_1 Sys-3 Flr-1 Sch-D HPlcmt-north ZN NECB System 3 PSZ Occ Sch Winter Design Day\n   ************* Only last 1 lines before error line shown.....\n   *************   1489   Sp-Computer_Class_ZN_1_FLR_1 Sys-3 Flr-1 Sch-D HPlcmt-north ZN NECB System 3 PSZ Occ Sch Winter Design Day, !- Name\n   ** Warning ** IP: IDF line~1489 Alpha Argument length exceeds maximum, will be truncated=  Sp-Computer_Class_ZN_1_FLR_1 Sys-3 Flr-1 Sch-D HPlcmt-north ZN NECB System 3 PSZ Occ Sch Winter Design Da\n   **   ~~~   ** Will be processed as Alpha=SP-COMPUTER_CLASS_ZN_1_FLR_1 SYS-3 FLR-1 SCH-D HPLCMT-NORTH ZN NECB SYSTEM 3 PSZ OCC SCH WINTER DESIGN DAY\n   ************* IDF Context for following error/warning message:\n   ************* Note -- lines truncated at 300 characters, if necessary...\n   *************   1769 Schedule:Day:Interval,\n   ************* indicated Name=Sp-Corner_Class_1_Pod_1_ZN_1_FLR_1 Sys-3 Flr-1 Sch-D HPlcmt-south ZN NECB System 3 PSZ Occ Sch Sunday\n   ************* Only last 1 lines before error line shown.....\n   *************   1770   Sp-Corner_Class_1_Pod_1_ZN_1_FLR_1 Sys-3 Flr-1 Sch-D HPlcmt-south ZN NECB System 3 PSZ Occ Sch Sunday, !- Name\n   ** Warning ** IP: IDF line~1770 Alpha Argument length exceeds maximum, will be truncated=  Sp-Corner_Class_1_Pod_1_ZN_1_FLR_1 Sys-3 Flr-1 Sch-D HPlcmt-south ZN NECB System 3 PSZ Occ Sch Sunda\n   **   ~~~   ** Will be processed as Alpha=SP-CORNER_CLASS_1_POD_1_ZN_1_FLR_1 SYS-3 FLR-1 SCH-D HPLCMT-SOUTH ZN NECB SYSTEM 3 PSZ OCC SCH SUNDAY\n   ************* IDF Context for following error/warning message:\n   ************* Note -- lines truncated at 300 characters, if necessary...\n   *************   1776 Schedule:Day:Interval,\n   ************* indicated Name=Sp-Corner_Class_1_Pod_1_ZN_1_FLR_1 Sys-3 Flr-1 Sch-D HPlcmt-south ZN NECB System 3 PSZ Occ Sch Monday\n   ************* Only last 1 lines before error line shown.....\n   *************   1777   Sp-Corner_Class_1_Pod_1_ZN_1_FLR_1 Sys-3 Flr-1 Sch-D HPlcmt-south ZN NECB System 3 PSZ Occ Sch Monday, !- Name\n   ** Warning ** IP: IDF line~1777 Alpha Argument length exceeds maximum, will be truncated=  Sp-Corner_Class_1_Pod_1_ZN_1_FLR_1 Sys-3 Flr-1 Sch-D HPlcmt-south ZN NECB System 3 PSZ Occ Sch Monda\n   **   ~~~   ** Will be processed as Alpha=SP-CORNER_CLASS_1_POD_1_ZN_1_FLR_1 SYS-3 FLR-1 SCH-D HPLCMT-SOUTH ZN NECB SYSTEM 3 PSZ OCC SCH MONDAY\n   ************* IDF Context for following error/warning message:\n   ************* Note -- lines truncated at 300 characters, if necessary...\n   *************   1791 Schedule:Day:Interval,\n   ************* indicated Name=Sp-Corner_Class_1_Pod_1_ZN_1_FLR_1 Sys-3 Flr-1 Sch-D HPlcmt-south ZN NECB System 3 PSZ Occ Sch Tuesday\n   ************* Only last 1 lines before error line shown.....\n   *************   1792   Sp-Corner_Class_1_Pod_1_ZN_1_FLR_1 Sys-3 Flr-1 Sch-D HPlcmt-south ZN NECB System 3 PSZ Occ Sch Tuesday, !- Name\n   ** Warning ** IP: IDF line~1792 Alpha Argument length exceeds maximum, will be truncated=  Sp-Corner_Class_1_Pod_1_ZN_1_FLR_1 Sys-3 Flr-1 Sch-D HPlcmt-south ZN NECB System 3 PSZ Occ Sch Tuesda\n   **   ~~~   ** Will be processed as Alpha=SP-CORNER_CLASS_1_POD_1_ZN_1_FLR_1 SYS-3 FLR-1 SCH-D HPLCMT-SOUTH ZN NECB SYSTEM 3 PSZ OCC SCH TUESDAY\n   ************* IDF Context for following error/warning message:\n   ************* Note -- lines truncated at 300 characters, if necessary...\n   *************   1806 Schedule:Day:Interval,\n   ************* indicated Name=Sp-Corner_Class_1_Pod_1_ZN_1_FLR_1 Sys-3 Flr-1 Sch-D HPlcmt-south ZN NECB System 3 PSZ Occ Sch Wednesday\n   ************* Only last 1 lines before error line shown.....\n   *************   1807   Sp-Corner_Class_1_Pod_1_ZN_1_FLR_1 Sys-3 Flr-1 Sch-D HPlcmt-south ZN NECB System 3 PSZ Occ Sch Wednesday, !- Name\n   ** Warning ** IP: IDF line~1807 Alpha Argument length exceeds maximum, will be truncated=  Sp-Corner_Class_1_Pod_1_ZN_1_FLR_1 Sys-3 Flr-1 Sch-D HPlcmt-south ZN NECB System 3 PSZ Occ Sch Wednesda\n   **   ~~~   ** Will be processed as Alpha=SP-CORNER_CLASS_1_POD_1_ZN_1_FLR_1 SYS-3 FLR-1 SCH-D HPLCMT-SOUTH ZN NECB SYSTEM 3 PSZ OCC SCH WEDNESDAY\n   ************* IDF Context for following error/warning message:\n   ************* Note -- lines truncated at 300 characters, if necessary...\n   *************   1821 Schedule:Day:Interval,\n   ************* indicated Name=Sp-Corner_Class_1_Pod_1_ZN_1_FLR_1 Sys-3 Flr-1 Sch-D HPlcmt-south ZN NECB System 3 PSZ Occ Sch Thursday\n   ************* Only last 1 lines before error line shown.....\n   *************   1822   Sp-Corner_Class_1_Pod_1_ZN_1_FLR_1 Sys-3 Flr-1 Sch-D HPlcmt-south ZN NECB System 3 PSZ Occ Sch Thursday, !- Name\n   ** Warning ** IP: IDF line~1822 Alpha Argument length exceeds maximum, will be truncated=  Sp-Corner_Class_1_Pod_1_ZN_1_FLR_1 Sys-3 Flr-1 Sch-D HPlcmt-south ZN NECB System 3 PSZ Occ Sch Thursda\n   **   ~~~   ** Will be processed as Alpha=SP-CORNER_CLASS_1_POD_1_ZN_1_FLR_1 SYS-3 FLR-1 SCH-D HPLCMT-SOUTH ZN NECB SYSTEM 3 PSZ OCC SCH THURSDAY\n   ************* IDF Context for following error/warning message:\n   ************* Note -- lines truncated at 300 characters, if necessary...\n   *************   1836 Schedule:Day:Interval,\n   ************* indicated Name=Sp-Corner_Class_1_Pod_1_ZN_1_FLR_1 Sys-3 Flr-1 Sch-D HPlcmt-south ZN NECB System 3 PSZ Occ Sch Friday\n   ************* Only last 1 lines before error line shown.....\n   *************   1837   Sp-Corner_Class_1_Pod_1_ZN_1_FLR_1 Sys-3 Flr-1 Sch-D HPlcmt-south ZN NECB System 3 PSZ Occ Sch Friday, !- Name\n   ** Warning ** IP: IDF line~1837 Alpha Argument length exceeds maximum, will be truncated=  Sp-Corner_Class_1_Pod_1_ZN_1_FLR_1 Sys-3 Flr-1 Sch-D HPlcmt-south ZN NECB System 3 PSZ Occ Sch Frida\n   **   ~~~   ** Will be processed as Alpha=SP-CORNER_CLASS_1_POD_1_ZN_1_FLR_1 SYS-3 FLR-1 SCH-D HPLCMT-SOUTH ZN NECB SYSTEM 3 PSZ OCC SCH FRIDAY\n   ************* IDF Context for following error/warning message:\n   ************* Note -- lines truncated at 300 characters, if necessary...\n   *************   1851 Schedule:Day:Interval,\n   ************* indicated Name=Sp-Corner_Class_1_Pod_1_ZN_1_FLR_1 Sys-3 Flr-1 Sch-D HPlcmt-south ZN NECB System 3 PSZ Occ Sch Saturday\n   ************* Only last 1 lines before error line shown.....\n   *************   1852   Sp-Corner_Class_1_Pod_1_ZN_1_FLR_1 Sys-3 Flr-1 Sch-D HPlcmt-south ZN NECB System 3 PSZ Occ Sch Saturday, !- Name\n   ** Warning ** IP: IDF line~1852 Alpha Argument length exceeds maximum, will be truncated=  Sp-Corner_Class_1_Pod_1_ZN_1_FLR_1 Sys-3 Flr-1 Sch-D HPlcmt-south ZN NECB System 3 PSZ Occ Sch Saturda\n   **   ~~~   ** Will be processed as Alpha=SP-CORNER_CLASS_1_POD_1_ZN_1_FLR_1 SYS-3 FLR-1 SCH-D HPLCMT-SOUTH ZN NECB SYSTEM 3 PSZ OCC SCH SATURDAY\n   ************* IDF Context for following error/warning message:\n   ************* Note -- lines truncated at 300 characters, if necessary...\n   *************   1858 Schedule:Week:Daily,\n   ************* indicated Name=Schedule:Week:Daily {c26dd486-41a2-4d20-bbee-0132618dbf7a}\n   ************* Only last 2 lines before error line shown.....\n   *************   1859   Schedule:Week:Daily {c26dd486-41a2-4d20-bbee-0132618dbf7a}, !- Name\n   *************   1860   Sp-Corner_Class_1_Pod_1_ZN_1_FLR_1 Sys-3 Flr-1 Sch-D HPlcmt-south ZN NECB System 3 PSZ Occ Sch Sunday, !- Sunday Schedule:Day Name\n   ** Warning ** IP: IDF line~1860 Alpha Argument length exceeds maximum, will be truncated=  Sp-Corner_Class_1_Pod_1_ZN_1_FLR_1 Sys-3 Flr-1 Sch-D HPlcmt-south ZN NECB System 3 PSZ Occ Sch Sunda\n   **   ~~~   ** Will be processed as Alpha=SP-CORNER_CLASS_1_POD_1_ZN_1_FLR_1 SYS-3 FLR-1 SCH-D HPLCMT-SOUTH ZN NECB SYSTEM 3 PSZ OCC SCH SUNDAY\n   ************* IDF Context for following error/warning message:\n   ************* Note -- lines truncated at 300 characters, if necessary...\n   *************   1858 Schedule:Week:Daily,\n   ************* indicated Name=Schedule:Week:Daily {c26dd486-41a2-4d20-bbee-0132618dbf7a}\n   ************* Only last 3 lines before error line shown.....\n   *************   1859   Schedule:Week:Daily {c26dd486-41a2-4d20-bbee-0132618dbf7a}, !- Name\n   *************   1860   Sp-Corner_Class_1_Pod_1_ZN_1_FLR_1 Sys-3 Flr-1 Sch-D HPlcmt-south ZN NECB System 3 PSZ Occ Sch Sunday, !- Sunday Schedule:Day Name\n   *************   1861   Sp-Corner_Class_1_Pod_1_ZN_1_FLR_1 Sys-3 Flr-1 Sch-D HPlcmt-south ZN NECB System 3 PSZ Occ Sch Monday, !- Monday Schedule:Day Name\n   ** Warning ** IP: IDF line~1861 Alpha Argument length exceeds maximum, will be truncated=  Sp-Corner_Class_1_Pod_1_ZN_1_FLR_1 Sys-3 Flr-1 Sch-D HPlcmt-south ZN NECB System 3 PSZ Occ Sch Monda\n   **   ~~~   ** Will be processed as Alpha=SP-CORNER_CLASS_1_POD_1_ZN_1_FLR_1 SYS-3 FLR-1 SCH-D HPLCMT-SOUTH ZN NECB SYSTEM 3 PSZ OCC SCH MONDAY\n   ************* IDF Context for following error/warning message:\n   ************* Note -- lines truncated at 300 characters, if necessary...\n   *************   1858 Schedule:Week:Daily,\n   ************* indicated Name=Schedule:Week:Daily {c26dd486-41a2-4d20-bbee-0132618dbf7a}\n   ************* Only last 4 lines before error line shown.....\n   *************   1859   Schedule:Week:Daily {c26dd486-41a2-4d20-bbee-0132618dbf7a}, !- Name\n   *************   1860   Sp-Corner_Class_1_Pod_1_ZN_1_FLR_1 Sys-3 Flr-1 Sch-D HPlcmt-south ZN NECB System 3 PSZ Occ Sch Sunday, !- Sunday Schedule:Day Name\n   *************   1861   Sp-Corner_Class_1_Pod_1_ZN_1_FLR_1 Sys-3 Flr-1 Sch-D HPlcmt-south ZN NECB System 3 PSZ Occ Sch Monday, !- Monday Schedule:Day Name\n   *************   1862   Sp-Corner_Class_1_Pod_1_ZN_1_FLR_1 Sys-3 Flr-1 Sch-D HPlcmt-south ZN NECB System 3 PSZ Occ Sch Tuesday, !- Tuesday Schedule:Day Name\n   ** Warning ** IP: IDF line~1862 Alpha Argument length exceeds maximum, will be truncated=  Sp-Corner_Class_1_Pod_1_ZN_1_FLR_1 Sys-3 Flr-1 Sch-D HPlcmt-south ZN NECB System 3 PSZ Occ Sch Tuesda\n   **   ~~~   ** Will be processed as Alpha=SP-CORNER_CLASS_1_POD_1_ZN_1_FLR_1 SYS-3 FLR-1 SCH-D HPLCMT-SOUTH ZN NECB SYSTEM 3 PSZ OCC SCH TUESDAY\n   ************* IDF Context for following error/warning message:\n   ************* Note -- lines truncated at 300 characters, if necessary...\n   *************   1858 Schedule:Week:Daily,\n   ************* indicated Name=Schedule:Week:Daily {c26dd486-41a2-4d20-bbee-0132618dbf7a}\n   ************* Only last 5 lines before error line shown.....\n   *************   1859   Schedule:Week:Daily {c26dd486-41a2-4d20-bbee-0132618dbf7a}, !- Name\n   *************   1860   Sp-Corner_Class_1_Pod_1_ZN_1_FLR_1 Sys-3 Flr-1 Sch-D HPlcmt-south ZN NECB System 3 PSZ Occ Sch Sunday, !- Sunday Schedule:Day Name\n   *************   1861   Sp-Corner_Class_1_Pod_1_ZN_1_FLR_1 Sys-3 Flr-1 Sch-D HPlcmt-south ZN NECB System 3 PSZ Occ Sch Monday, !- Monday Schedule:Day Name\n   *************   1862   Sp-Corner_Class_1_Pod_1_ZN_1_FLR_1 Sys-3 Flr-1 Sch-D HPlcmt-south ZN NECB System 3 PSZ Occ Sch Tuesday, !- Tuesday Schedule:Day Name\n   *************   1863   Sp-Corner_Class_1_Pod_1_ZN_1_FLR_1 Sys-3 Flr-1 Sch-D HPlcmt-south ZN NECB System 3 PSZ Occ Sch Wednesday, !- Wednesday Schedule:Day Name\n   ** Warning ** IP: IDF line~1863 Alpha Argument length exceeds maximum, will be truncated=  Sp-Corner_Class_1_Pod_1_ZN_1_FLR_1 Sys-3 Flr-1 Sch-D HPlcmt-south ZN NECB System 3 PSZ Occ Sch Wednesda\n   **   ~~~   ** Will be processed as Alpha=SP-CORNER_CLASS_1_POD_1_ZN_1_FLR_1 SYS-3 FLR-1 SCH-D HPLCMT-SOUTH ZN NECB SYSTEM 3 PSZ OCC SCH WEDNESDAY\n   ************* IDF Context for following error/warning message:\n   ************* Note -- lines truncated at 300 characters, if necessary...\n   *************   1858 Schedule:Week:Daily,\n   ************* indicated Name=Schedule:Week:Daily {c26dd486-41a2-4d20-bbee-0132618dbf7a}\n   ************* Only last 6 lines before error line shown.....\n   *************   1859   Schedule:Week:Daily {c26dd486-41a2-4d20-bbee-0132618dbf7a}, !- Name\n   *************   1860   Sp-Corner_Class_1_Pod_1_ZN_1_FLR_1 Sys-3 Flr-1 Sch-D HPlcmt-south ZN NECB System 3 PSZ Occ Sch Sunday, !- Sunday Schedule:Day Name\n   *************   1861   Sp-Corner_Class_1_Pod_1_ZN_1_FLR_1 Sys-3 Flr-1 Sch-D HPlcmt-south ZN NECB System 3 PSZ Occ Sch Monday, !- Monday Schedule:Day Name\n   *************   1862   Sp-Corner_Class_1_Pod_1_ZN_1_FLR_1 Sys-3 Flr-1 Sch-D HPlcmt-south ZN NECB System 3 PSZ Occ Sch Tuesday, !- Tuesday Schedule:Day Name\n   *************   1863   Sp-Corner_Class_1_Pod_1_ZN_1_FLR_1 Sys-3 Flr-1 Sch-D HPlcmt-south ZN NECB System 3 PSZ Occ Sch Wednesday, !- Wednesday Schedule:Day Name\n   *************   1864   Sp-Corner_Class_1_Pod_1_ZN_1_FLR_1 Sys-3 Flr-1 Sch-D HPlcmt-south ZN NECB System 3 PSZ Occ Sch Thursday, !- Thursday Schedule:Day Name\n   ** Warning ** IP: IDF line~1864 Alpha Argument length exceeds maximum, will be truncated=  Sp-Corner_Class_1_Pod_1_ZN_1_FLR_1 Sys-3 Flr-1 Sch-D HPlcmt-south ZN NECB System 3 PSZ Occ Sch Thursda\n   **   ~~~   ** Will be processed as Alpha=SP-CORNER_CLASS_1_POD_1_ZN_1_FLR_1 SYS-3 FLR-1 SCH-D HPLCMT-SOUTH ZN NECB SYSTEM 3 PSZ OCC SCH THURSDAY\n   ************* IDF Context for following error/warning message:\n   ************* Note -- lines truncated at 300 characters, if necessary...\n   *************   1858 Schedule:Week:Daily,\n   ************* indicated Name=Schedule:Week:Daily {c26dd486-41a2-4d20-bbee-0132618dbf7a}\n   ************* Only last 7 lines before error line shown.....\n   *************   1859   Schedule:Week:Daily {c26dd486-41a2-4d20-bbee-0132618dbf7a}, !- Name\n   *************   1860   Sp-Corner_Class_1_Pod_1_ZN_1_FLR_1 Sys-3 Flr-1 Sch-D HPlcmt-south ZN NECB System 3 PSZ Occ Sch Sunday, !- Sunday Schedule:Day Name\n   *************   1861   Sp-Corner_Class_1_Pod_1_ZN_1_FLR_1 Sys-3 Flr-1 Sch-D HPlcmt-south ZN NECB System 3 PSZ Occ Sch Monday, !- Monday Schedule:Day Name\n   *************   1862   Sp-Corner_Class_1_Pod_1_ZN_1_FLR_1 Sys-3 Flr-1 Sch-D HPlcmt-south ZN NECB System 3 PSZ Occ Sch Tuesday, !- Tuesday Schedule:Day Name\n   *************   1863   Sp-Corner_Class_1_Pod_1_ZN_1_FLR_1 Sys-3 Flr-1 Sch-D HPlcmt-south ZN NECB System 3 PSZ Occ Sch Wednesday, !- Wednesday Schedule:Day Name\n   *************   1864   Sp-Corner_Class_1_Pod_1_ZN_1_FLR_1 Sys-3 Flr-1 Sch-D HPlcmt-south ZN NECB System 3 PSZ Occ Sch Thursday, !- Thursday Schedule:Day Name\n   *************   1865   Sp-Corner_Class_1_Pod_1_ZN_1_FLR_1 Sys-3 Flr-1 Sch-D HPlcmt-south ZN NECB System 3 PSZ Occ Sch Friday, !- Friday Schedule:Day Name\n   ** Warning ** IP: IDF line~1865 Alpha Argument length exceeds maximum, will be truncated=  Sp-Corner_Class_1_Pod_1_ZN_1_FLR_1 Sys-3 Flr-1 Sch-D HPlcmt-south ZN NECB System 3 PSZ Occ Sch Frida\n   **   ~~~   ** Will be processed as Alpha=SP-CORNER_CLASS_1_POD_1_ZN_1_FLR_1 SYS-3 FLR-1 SCH-D HPLCMT-SOUTH ZN NECB SYSTEM 3 PSZ OCC SCH FRIDAY\n   ************* IDF Context for following error/warning message:\n   ************* Note -- lines truncated at 300 characters, if necessary...\n   *************   1858 Schedule:Week:Daily,\n   ************* indicated Name=Schedule:Week:Daily {c26dd486-41a2-4d20-bbee-0132618dbf7a}\n   ************* Only last 8 lines before error line shown.....\n   *************   1859   Schedule:Week:Daily {c26dd486-41a2-4d20-bbee-0132618dbf7a}, !- Name\n   *************   1860   Sp-Corner_Class_1_Pod_1_ZN_1_FLR_1 Sys-3 Flr-1 Sch-D HPlcmt-south ZN NECB System 3 PSZ Occ Sch Sunday, !- Sunday Schedule:Day Name\n   *************   1861   Sp-Corner_Class_1_Pod_1_ZN_1_FLR_1 Sys-3 Flr-1 Sch-D HPlcmt-south ZN NECB System 3 PSZ Occ Sch Monday, !- Monday Schedule:Day Name\n   *************   1862   Sp-Corner_Class_1_Pod_1_ZN_1_FLR_1 Sys-3 Flr-1 Sch-D HPlcmt-south ZN NECB System 3 PSZ Occ Sch Tuesday, !- Tuesday Schedule:Day Name\n   *************   1863   Sp-Corner_Class_1_Pod_1_ZN_1_FLR_1 Sys-3 Flr-1 Sch-D HPlcmt-south ZN NECB System 3 PSZ Occ Sch Wednesday, !- Wednesday Schedule:Day Name\n   *************   1864   Sp-Corner_Class_1_Pod_1_ZN_1_FLR_1 Sys-3 Flr-1 Sch-D HPlcmt-south ZN NECB System 3 PSZ Occ Sch Thursday, !- Thursday Schedule:Day Name\n   *************   1865   Sp-Corner_Class_1_Pod_1_ZN_1_FLR_1 Sys-3 Flr-1 Sch-D HPlcmt-south ZN NECB System 3 PSZ Occ Sch Friday, !- Friday Schedule:Day Name\n   *************   1866   Sp-Corner_Class_1_Pod_1_ZN_1_FLR_1 Sys-3 Flr-1 Sch-D HPlcmt-south ZN NECB System 3 PSZ Occ Sch Saturday, !- Saturday Schedule:Day Name\n   ** Warning ** IP: IDF line~1866 Alpha Argument length exceeds maximum, will be truncated=  Sp-Corner_Class_1_Pod_1_ZN_1_FLR_1 Sys-3 Flr-1 Sch-D HPlcmt-south ZN NECB System 3 PSZ Occ Sch Saturda\n   **   ~~~   ** Will be processed as Alpha=SP-CORNER_CLASS_1_POD_1_ZN_1_FLR_1 SYS-3 FLR-1 SCH-D HPLCMT-SOUTH ZN NECB SYSTEM 3 PSZ OCC SCH SATURDAY\n   ************* IDF Context for following error/warning message:\n   ************* Note -- lines truncated at 300 characters, if necessary...\n   *************   1858 Schedule:Week:Daily,\n   ************* indicated Name=Schedule:Week:Daily {c26dd486-41a2-4d20-bbee-0132618dbf7a}\n   ************* Only last 9 lines before error line shown.....\n   *************   1859   Schedule:Week:Daily {c26dd486-41a2-4d20-bbee-0132618dbf7a}, !- Name\n   *************   1860   Sp-Corner_Class_1_Pod_1_ZN_1_FLR_1 Sys-3 Flr-1 Sch-D HPlcmt-south ZN NECB System 3 PSZ Occ Sch Sunday, !- Sunday Schedule:Day Name\n   *************   1861   Sp-Corner_Class_1_Pod_1_ZN_1_FLR_1 Sys-3 Flr-1 Sch-D HPlcmt-south ZN NECB System 3 PSZ Occ Sch Monday, !- Monday Schedule:Day Name\n   *************   1862   Sp-Corner_Class_1_Pod_1_ZN_1_FLR_1 Sys-3 Flr-1 Sch-D HPlcmt-south ZN NECB System 3 PSZ Occ Sch Tuesday, !- Tuesday Schedule:Day Name\n   *************   1863   Sp-Corner_Class_1_Pod_1_ZN_1_FLR_1 Sys-3 Flr-1 Sch-D HPlcmt-south ZN NECB System 3 PSZ Occ Sch Wednesday, !- Wednesday Schedule:Day Name\n   *************   1864   Sp-Corner_Class_1_Pod_1_ZN_1_FLR_1 Sys-3 Flr-1 Sch-D HPlcmt-south ZN NECB System 3 PSZ Occ Sch Thursday, !- Thursday Schedule:Day Name\n   *************   1865   Sp-Corner_Class_1_Pod_1_ZN_1_FLR_1 Sys-3 Flr-1 Sch-D HPlcmt-south ZN NECB System 3 PSZ Occ Sch Friday, !- Friday Schedule:Day Name\n   *************   1866   Sp-Corner_Class_1_Pod_1_ZN_1_FLR_1 Sys-3 Flr-1 Sch-D HPlcmt-south ZN NECB System 3 PSZ Occ Sch Saturday, !- Saturday Schedule:Day Name\n   *************   1867   Sp-Corner_Class_1_Pod_1_ZN_1_FLR_1 Sys-3 Flr-1 Sch-D HPlcmt-south ZN NECB System 3 PSZ Occ Sch Default, !- Holiday Schedule:Day Name\n   ** Warning ** IP: IDF line~1867 Alpha Argument length exceeds maximum, will be truncated=  Sp-Corner_Class_1_Pod_1_ZN_1_FLR_1 Sys-3 Flr-1 Sch-D HPlcmt-south ZN NECB System 3 PSZ Occ Sch Defaul\n   **   ~~~   ** Will be processed as Alpha=SP-CORNER_CLASS_1_POD_1_ZN_1_FLR_1 SYS-3 FLR-1 SCH-D HPLCMT-SOUTH ZN NECB SYSTEM 3 PSZ OCC SCH DEFAULT\n   ************* IDF Context for following error/warning message:\n   ************* Note -- lines truncated at 300 characters, if necessary...\n   *************   1858 Schedule:Week:Daily,\n   ************* indicated Name=Schedule:Week:Daily {c26dd486-41a2-4d20-bbee-0132618dbf7a}\n   ************* Only last 10 lines before error line shown.....\n   *************   1859   Schedule:Week:Daily {c26dd486-41a2-4d20-bbee-0132618dbf7a}, !- Name\n   *************   1860   Sp-Corner_Class_1_Pod_1_ZN_1_FLR_1 Sys-3 Flr-1 Sch-D HPlcmt-south ZN NECB System 3 PSZ Occ Sch Sunday, !- Sunday Schedule:Day Name\n   *************   1861   Sp-Corner_Class_1_Pod_1_ZN_1_FLR_1 Sys-3 Flr-1 Sch-D HPlcmt-south ZN NECB System 3 PSZ Occ Sch Monday, !- Monday Schedule:Day Name\n   *************   1862   Sp-Corner_Class_1_Pod_1_ZN_1_FLR_1 Sys-3 Flr-1 Sch-D HPlcmt-south ZN NECB System 3 PSZ Occ Sch Tuesday, !- Tuesday Schedule:Day Name\n   *************   1863   Sp-Corner_Class_1_Pod_1_ZN_1_FLR_1 Sys-3 Flr-1 Sch-D HPlcmt-south ZN NECB System 3 PSZ Occ Sch Wednesday, !- Wednesday Schedule:Day Name\n   *************   1864   Sp-Corner_Class_1_Pod_1_ZN_1_FLR_1 Sys-3 Flr-1 Sch-D HPlcmt-south ZN NECB System 3 PSZ Occ Sch Thursday, !- Thursday Schedule:Day Name\n   *************   1865   Sp-Corner_Class_1_Pod_1_ZN_1_FLR_1 Sys-3 Flr-1 Sch-D HPlcmt-south ZN NECB System 3 PSZ Occ Sch Friday, !- Friday Schedule:Day Name\n   *************   1866   Sp-Corner_Class_1_Pod_1_ZN_1_FLR_1 Sys-3 Flr-1 Sch-D HPlcmt-south ZN NECB System 3 PSZ Occ Sch Saturday, !- Saturday Schedule:Day Name\n   *************   1867   Sp-Corner_Class_1_Pod_1_ZN_1_FLR_1 Sys-3 Flr-1 Sch-D HPlcmt-south ZN NECB System 3 PSZ Occ Sch Default, !- Holiday Schedule:Day Name\n   *************   1868   Sp-Corner_Class_1_Pod_1_ZN_1_FLR_1 Sys-3 Flr-1 Sch-D HPlcmt-south ZN NECB System 3 PSZ Occ Sch Summer Design Day, !- SummerDesignDay Schedule:Day Name\n   ** Warning ** IP: IDF line~1868 Alpha Argument length exceeds maximum, will be truncated=  Sp-Corner_Class_1_Pod_1_ZN_1_FLR_1 Sys-3 Flr-1 Sch-D HPlcmt-south ZN NECB System 3 PSZ Occ Sch Summer Design Da\n   **   ~~~   ** Will be processed as Alpha=SP-CORNER_CLASS_1_POD_1_ZN_1_FLR_1 SYS-3 FLR-1 SCH-D HPLCMT-SOUTH ZN NECB SYSTEM 3 PSZ OCC SCH SUMMER DESIGN DAY\n   ************* IDF Context for following error/warning message:\n   ************* Note -- lines truncated at 300 characters, if necessary...\n   *************   1858 Schedule:Week:Daily,\n   ************* indicated Name=Schedule:Week:Daily {c26dd486-41a2-4d20-bbee-0132618dbf7a}\n   ************* Only last 10 lines before error line shown.....\n   *************   1860   Sp-Corner_Class_1_Pod_1_ZN_1_FLR_1 Sys-3 Flr-1 Sch-D HPlcmt-south ZN NECB System 3 PSZ Occ Sch Sunday, !- Sunday Schedule:Day Name\n   *************   1861   Sp-Corner_Class_1_Pod_1_ZN_1_FLR_1 Sys-3 Flr-1 Sch-D HPlcmt-south ZN NECB System 3 PSZ Occ Sch Monday, !- Monday Schedule:Day Name\n   *************   1862   Sp-Corner_Class_1_Pod_1_ZN_1_FLR_1 Sys-3 Flr-1 Sch-D HPlcmt-south ZN NECB System 3 PSZ Occ Sch Tuesday, !- Tuesday Schedule:Day Name\n   *************   1863   Sp-Corner_Class_1_Pod_1_ZN_1_FLR_1 Sys-3 Flr-1 Sch-D HPlcmt-south ZN NECB System 3 PSZ Occ Sch Wednesday, !- Wednesday Schedule:Day Name\n   *************   1864   Sp-Corner_Class_1_Pod_1_ZN_1_FLR_1 Sys-3 Flr-1 Sch-D HPlcmt-south ZN NECB System 3 PSZ Occ Sch Thursday, !- Thursday Schedule:Day Name\n   *************   1865   Sp-Corner_Class_1_Pod_1_ZN_1_FLR_1 Sys-3 Flr-1 Sch-D HPlcmt-south ZN NECB System 3 PSZ Occ Sch Friday, !- Friday Schedule:Day Name\n   *************   1866   Sp-Corner_Class_1_Pod_1_ZN_1_FLR_1 Sys-3 Flr-1 Sch-D HPlcmt-south ZN NECB System 3 PSZ Occ Sch Saturday, !- Saturday Schedule:Day Name\n   *************   1867   Sp-Corner_Class_1_Pod_1_ZN_1_FLR_1 Sys-3 Flr-1 Sch-D HPlcmt-south ZN NECB System 3 PSZ Occ Sch Default, !- Holiday Schedule:Day Name\n   *************   1868   Sp-Corner_Class_1_Pod_1_ZN_1_FLR_1 Sys-3 Flr-1 Sch-D HPlcmt-south ZN NECB System 3 PSZ Occ Sch Summer Design Day, !- SummerDesignDay Schedule:Day Name\n   *************   1869   Sp-Corner_Class_1_Pod_1_ZN_1_FLR_1 Sys-3 Flr-1 Sch-D HPlcmt-south ZN NECB System 3 PSZ Occ Sch Winter Design Day, !- WinterDesignDay Schedule:Day Name\n   ** Warning ** IP: IDF line~1869 Alpha Argument length exceeds maximum, will be truncated=  Sp-Corner_Class_1_Pod_1_ZN_1_FLR_1 Sys-3 Flr-1 Sch-D HPlcmt-south ZN NECB System 3 PSZ Occ Sch Winter Design Da\n   **   ~~~   ** Will be processed as Alpha=SP-CORNER_CLASS_1_POD_1_ZN_1_FLR_1 SYS-3 FLR-1 SCH-D HPLCMT-SOUTH ZN NECB SYSTEM 3 PSZ OCC SCH WINTER DESIGN DAY\n   ************* IDF Context for following error/warning message:\n   ************* Note -- lines truncated at 300 characters, if necessary...\n   *************   1858 Schedule:Week:Daily,\n   ************* indicated Name=Schedule:Week:Daily {c26dd486-41a2-4d20-bbee-0132618dbf7a}\n   ************* Only last 10 lines before error line shown.....\n   *************   1861   Sp-Corner_Class_1_Pod_1_ZN_1_FLR_1 Sys-3 Flr-1 Sch-D HPlcmt-south ZN NECB System 3 PSZ Occ Sch Monday, !- Monday Schedule:Day Name\n   *************   1862   Sp-Corner_Class_1_Pod_1_ZN_1_FLR_1 Sys-3 Flr-1 Sch-D HPlcmt-south ZN NECB System 3 PSZ Occ Sch Tuesday, !- Tuesday Schedule:Day Name\n   *************   1863   Sp-Corner_Class_1_Pod_1_ZN_1_FLR_1 Sys-3 Flr-1 Sch-D HPlcmt-south ZN NECB System 3 PSZ Occ Sch Wednesday, !- Wednesday Schedule:Day Name\n   *************   1864   Sp-Corner_Class_1_Pod_1_ZN_1_FLR_1 Sys-3 Flr-1 Sch-D HPlcmt-south ZN NECB System 3 PSZ Occ Sch Thursday, !- Thursday Schedule:Day Name\n   *************   1865   Sp-Corner_Class_1_Pod_1_ZN_1_FLR_1 Sys-3 Flr-1 Sch-D HPlcmt-south ZN NECB System 3 PSZ Occ Sch Friday, !- Friday Schedule:Day Name\n   *************   1866   Sp-Corner_Class_1_Pod_1_ZN_1_FLR_1 Sys-3 Flr-1 Sch-D HPlcmt-south ZN NECB System 3 PSZ Occ Sch Saturday, !- Saturday Schedule:Day Name\n   *************   1867   Sp-Corner_Class_1_Pod_1_ZN_1_FLR_1 Sys-3 Flr-1 Sch-D HPlcmt-south ZN NECB System 3 PSZ Occ Sch Default, !- Holiday Schedule:Day Name\n   *************   1868   Sp-Corner_Class_1_Pod_1_ZN_1_FLR_1 Sys-3 Flr-1 Sch-D HPlcmt-south ZN NECB System 3 PSZ Occ Sch Summer Design Day, !- SummerDesignDay Schedule:Day Name\n   *************   1869   Sp-Corner_Class_1_Pod_1_ZN_1_FLR_1 Sys-3 Flr-1 Sch-D HPlcmt-south ZN NECB System 3 PSZ Occ Sch Winter Design Day, !- WinterDesignDay Schedule:Day Name\n   *************   1870   Sp-Corner_Class_1_Pod_1_ZN_1_FLR_1 Sys-3 Flr-1 Sch-D HPlcmt-south ZN NECB System 3 PSZ Occ Sch Default, !- CustomDay1 Schedule:Day Name\n   ** Warning ** IP: IDF line~1870 Alpha Argument length exceeds maximum, will be truncated=  Sp-Corner_Class_1_Pod_1_ZN_1_FLR_1 Sys-3 Flr-1 Sch-D HPlcmt-south ZN NECB System 3 PSZ Occ Sch Defaul\n   **   ~~~   ** Will be processed as Alpha=SP-CORNER_CLASS_1_POD_1_ZN_1_FLR_1 SYS-3 FLR-1 SCH-D HPLCMT-SOUTH ZN NECB SYSTEM 3 PSZ OCC SCH DEFAULT\n   ************* IDF Context for following error/warning message:\n   ************* Note -- lines truncated at 300 characters, if necessary...\n   *************   1858 Schedule:Week:Daily,\n   ************* indicated Name=Schedule:Week:Daily {c26dd486-41a2-4d20-bbee-0132618dbf7a}\n   ************* Only last 10 lines before error line shown.....\n   *************   1862   Sp-Corner_Class_1_Pod_1_ZN_1_FLR_1 Sys-3 Flr-1 Sch-D HPlcmt-south ZN NECB System 3 PSZ Occ Sch Tuesday, !- Tuesday Schedule:Day Name\n   *************   1863   Sp-Corner_Class_1_Pod_1_ZN_1_FLR_1 Sys-3 Flr-1 Sch-D HPlcmt-south ZN NECB System 3 PSZ Occ Sch Wednesday, !- Wednesday Schedule:Day Name\n   *************   1864   Sp-Corner_Class_1_Pod_1_ZN_1_FLR_1 Sys-3 Flr-1 Sch-D HPlcmt-south ZN NECB System 3 PSZ Occ Sch Thursday, !- Thursday Schedule:Day Name\n   *************   1865   Sp-Corner_Class_1_Pod_1_ZN_1_FLR_1 Sys-3 Flr-1 Sch-D HPlcmt-south ZN NECB System 3 PSZ Occ Sch Friday, !- Friday Schedule:Day Name\n   *************   1866   Sp-Corner_Class_1_Pod_1_ZN_1_FLR_1 Sys-3 Flr-1 Sch-D HPlcmt-south ZN NECB System 3 PSZ Occ Sch Saturday, !- Saturday Schedule:Day Name\n   *************   1867   Sp-Corner_Class_1_Pod_1_ZN_1_FLR_1 Sys-3 Flr-1 Sch-D HPlcmt-south ZN NECB System 3 PSZ Occ Sch Default, !- Holiday Schedule:Day Name\n   *************   1868   Sp-Corner_Class_1_Pod_1_ZN_1_FLR_1 Sys-3 Flr-1 Sch-D HPlcmt-south ZN NECB System 3 PSZ Occ Sch Summer Design Day, !- SummerDesignDay Schedule:Day Name\n   *************   1869   Sp-Corner_Class_1_Pod_1_ZN_1_FLR_1 Sys-3 Flr-1 Sch-D HPlcmt-south ZN NECB System 3 PSZ Occ Sch Winter Design Day, !- WinterDesignDay Schedule:Day Name\n   *************   1870   Sp-Corner_Class_1_Pod_1_ZN_1_FLR_1 Sys-3 Flr-1 Sch-D HPlcmt-south ZN NECB System 3 PSZ Occ Sch Default, !- CustomDay1 Schedule:Day Name\n   *************   1871   Sp-Corner_Class_1_Pod_1_ZN_1_FLR_1 Sys-3 Flr-1 Sch-D HPlcmt-south ZN NECB System 3 PSZ Occ Sch Default; !- CustomDay2 Schedule:Day Name\n   ** Warning ** IP: IDF line~1871 Alpha Argument length exceeds maximum, will be truncated=  Sp-Corner_Class_1_Pod_1_ZN_1_FLR_1 Sys-3 Flr-1 Sch-D HPlcmt-south ZN NECB System 3 PSZ Occ Sch Defaul\n   **   ~~~   ** Will be processed as Alpha=SP-CORNER_CLASS_1_POD_1_ZN_1_FLR_1 SYS-3 FLR-1 SCH-D HPLCMT-SOUTH ZN NECB SYSTEM 3 PSZ OCC SCH DEFAULT\n   ************* IDF Context for following error/warning message:\n   ************* Note -- lines truncated at 300 characters, if necessary...\n   *************   1882 Schedule:Day:Interval,\n   ************* indicated Name=Sp-Corner_Class_1_Pod_1_ZN_1_FLR_1 Sys-3 Flr-1 Sch-D HPlcmt-south ZN NECB System 3 PSZ Occ Sch Default\n   ************* Only last 1 lines before error line shown.....\n   *************   1883   Sp-Corner_Class_1_Pod_1_ZN_1_FLR_1 Sys-3 Flr-1 Sch-D HPlcmt-south ZN NECB System 3 PSZ Occ Sch Default, !- Name\n   ** Warning ** IP: IDF line~1883 Alpha Argument length exceeds maximum, will be truncated=  Sp-Corner_Class_1_Pod_1_ZN_1_FLR_1 Sys-3 Flr-1 Sch-D HPlcmt-south ZN NECB System 3 PSZ Occ Sch Defaul\n   **   ~~~   ** Will be processed as Alpha=SP-CORNER_CLASS_1_POD_1_ZN_1_FLR_1 SYS-3 FLR-1 SCH-D HPLCMT-SOUTH ZN NECB SYSTEM 3 PSZ OCC SCH DEFAULT\n   ************* IDF Context for following error/warning message:\n   ************* Note -- lines truncated at 300 characters, if necessary...\n   *************   1889 Schedule:Day:Interval,\n   ************* indicated Name=Sp-Corner_Class_1_Pod_1_ZN_1_FLR_1 Sys-3 Flr-1 Sch-D HPlcmt-south ZN NECB System 3 PSZ Occ Sch Summer Design Day\n   ************* Only last 1 lines before error line shown.....\n   *************   1890   Sp-Corner_Class_1_Pod_1_ZN_1_FLR_1 Sys-3 Flr-1 Sch-D HPlcmt-south ZN NECB System 3 PSZ Occ Sch Summer Design Day, !- Name\n   ** Warning ** IP: IDF line~1890 Alpha Argument length exceeds maximum, will be truncated=  Sp-Corner_Class_1_Pod_1_ZN_1_FLR_1 Sys-3 Flr-1 Sch-D HPlcmt-south ZN NECB System 3 PSZ Occ Sch Summer Design Da\n   **   ~~~   ** Will be processed as Alpha=SP-CORNER_CLASS_1_POD_1_ZN_1_FLR_1 SYS-3 FLR-1 SCH-D HPLCMT-SOUTH ZN NECB SYSTEM 3 PSZ OCC SCH SUMMER DESIGN DAY\n   ************* IDF Context for following error/warning message:\n   ************* Note -- lines truncated at 300 characters, if necessary...\n   *************   1896 Schedule:Day:Interval,\n   ************* indicated Name=Sp-Corner_Class_1_Pod_1_ZN_1_FLR_1 Sys-3 Flr-1 Sch-D HPlcmt-south ZN NECB System 3 PSZ Occ Sch Winter Design Day\n   ************* Only last 1 lines before error line shown.....\n   *************   1897   Sp-Corner_Class_1_Pod_1_ZN_1_FLR_1 Sys-3 Flr-1 Sch-D HPlcmt-south ZN NECB System 3 PSZ Occ Sch Winter Design Day, !- Name\n   ** Warning ** IP: IDF line~1897 Alpha Argument length exceeds maximum, will be truncated=  Sp-Corner_Class_1_Pod_1_ZN_1_FLR_1 Sys-3 Flr-1 Sch-D HPlcmt-south ZN NECB System 3 PSZ Occ Sch Winter Design Da\n   **   ~~~   ** Will be processed as Alpha=SP-CORNER_CLASS_1_POD_1_ZN_1_FLR_1 SYS-3 FLR-1 SCH-D HPLCMT-SOUTH ZN NECB SYSTEM 3 PSZ OCC SCH WINTER DESIGN DAY\n   ************* IDF Context for following error/warning message:\n   ************* Note -- lines truncated at 300 characters, if necessary...\n   *************   2169 Schedule:Day:Interval,\n   ************* indicated Name=Sp-Corner_Class_1_Pod_2_ZN_1_FLR_1 Sys-3 Flr-1 Sch-D HPlcmt-south ZN NECB System 3 PSZ Occ Sch Sunday\n   ************* Only last 1 lines before error line shown.....\n   *************   2170   Sp-Corner_Class_1_Pod_2_ZN_1_FLR_1 Sys-3 Flr-1 Sch-D HPlcmt-south ZN NECB System 3 PSZ Occ Sch Sunday, !- Name\n   ** Warning ** IP: IDF line~2170 Alpha Argument length exceeds maximum, will be truncated=  Sp-Corner_Class_1_Pod_2_ZN_1_FLR_1 Sys-3 Flr-1 Sch-D HPlcmt-south ZN NECB System 3 PSZ Occ Sch Sunda\n   **   ~~~   ** Will be processed as Alpha=SP-CORNER_CLASS_1_POD_2_ZN_1_FLR_1 SYS-3 FLR-1 SCH-D HPLCMT-SOUTH ZN NECB SYSTEM 3 PSZ OCC SCH SUNDAY\n   ************* IDF Context for following error/warning message:\n   ************* Note -- lines truncated at 300 characters, if necessary...\n   *************   2176 Schedule:Day:Interval,\n   ************* indicated Name=Sp-Corner_Class_1_Pod_2_ZN_1_FLR_1 Sys-3 Flr-1 Sch-D HPlcmt-south ZN NECB System 3 PSZ Occ Sch Monday\n   ************* Only last 1 lines before error line shown.....\n   *************   2177   Sp-Corner_Class_1_Pod_2_ZN_1_FLR_1 Sys-3 Flr-1 Sch-D HPlcmt-south ZN NECB System 3 PSZ Occ Sch Monday, !- Name\n   ** Warning ** IP: IDF line~2177 Alpha Argument length exceeds maximum, will be truncated=  Sp-Corner_Class_1_Pod_2_ZN_1_FLR_1 Sys-3 Flr-1 Sch-D HPlcmt-south ZN NECB System 3 PSZ Occ Sch Monda\n   **   ~~~   ** Will be processed as Alpha=SP-CORNER_CLASS_1_POD_2_ZN_1_FLR_1 SYS-3 FLR-1 SCH-D HPLCMT-SOUTH ZN NECB SYSTEM 3 PSZ OCC SCH MONDAY\n   ************* IDF Context for following error/warning message:\n   ************* Note -- lines truncated at 300 characters, if necessary...\n   *************   2191 Schedule:Day:Interval,\n   ************* indicated Name=Sp-Corner_Class_1_Pod_2_ZN_1_FLR_1 Sys-3 Flr-1 Sch-D HPlcmt-south ZN NECB System 3 PSZ Occ Sch Tuesday\n   ************* Only last 1 lines before error line shown.....\n   *************   2192   Sp-Corner_Class_1_Pod_2_ZN_1_FLR_1 Sys-3 Flr-1 Sch-D HPlcmt-south ZN NECB System 3 PSZ Occ Sch Tuesday, !- Name\n   ** Warning ** IP: IDF line~2192 Alpha Argument length exceeds maximum, will be truncated=  Sp-Corner_Class_1_Pod_2_ZN_1_FLR_1 Sys-3 Flr-1 Sch-D HPlcmt-south ZN NECB System 3 PSZ Occ Sch Tuesda\n   **   ~~~   ** Will be processed as Alpha=SP-CORNER_CLASS_1_POD_2_ZN_1_FLR_1 SYS-3 FLR-1 SCH-D HPLCMT-SOUTH ZN NECB SYSTEM 3 PSZ OCC SCH TUESDAY\n   ************* IDF Context for following error/warning message:\n   ************* Note -- lines truncated at 300 characters, if necessary...\n   *************   2206 Schedule:Day:Interval,\n   ************* indicated Name=Sp-Corner_Class_1_Pod_2_ZN_1_FLR_1 Sys-3 Flr-1 Sch-D HPlcmt-south ZN NECB System 3 PSZ Occ Sch Wednesday\n   ************* Only last 1 lines before error line shown.....\n   *************   2207   Sp-Corner_Class_1_Pod_2_ZN_1_FLR_1 Sys-3 Flr-1 Sch-D HPlcmt-south ZN NECB System 3 PSZ Occ Sch Wednesday, !- Name\n   ** Warning ** IP: IDF line~2207 Alpha Argument length exceeds maximum, will be truncated=  Sp-Corner_Class_1_Pod_2_ZN_1_FLR_1 Sys-3 Flr-1 Sch-D HPlcmt-south ZN NECB System 3 PSZ Occ Sch Wednesda\n   **   ~~~   ** Will be processed as Alpha=SP-CORNER_CLASS_1_POD_2_ZN_1_FLR_1 SYS-3 FLR-1 SCH-D HPLCMT-SOUTH ZN NECB SYSTEM 3 PSZ OCC SCH WEDNESDAY\n   ************* IDF Context for following error/warning message:\n   ************* Note -- lines truncated at 300 characters, if necessary...\n   *************   2221 Schedule:Day:Interval,\n   ************* indicated Name=Sp-Corner_Class_1_Pod_2_ZN_1_FLR_1 Sys-3 Flr-1 Sch-D HPlcmt-south ZN NECB System 3 PSZ Occ Sch Thursday\n   ************* Only last 1 lines before error line shown.....\n   *************   2222   Sp-Corner_Class_1_Pod_2_ZN_1_FLR_1 Sys-3 Flr-1 Sch-D HPlcmt-south ZN NECB System 3 PSZ Occ Sch Thursday, !- Name\n   ** Warning ** IP: IDF line~2222 Alpha Argument length exceeds maximum, will be truncated=  Sp-Corner_Class_1_Pod_2_ZN_1_FLR_1 Sys-3 Flr-1 Sch-D HPlcmt-south ZN NECB System 3 PSZ Occ Sch Thursda\n   **   ~~~   ** Will be processed as Alpha=SP-CORNER_CLASS_1_POD_2_ZN_1_FLR_1 SYS-3 FLR-1 SCH-D HPLCMT-SOUTH ZN NECB SYSTEM 3 PSZ OCC SCH THURSDAY\n   ************* IDF Context for following error/warning message:\n   ************* Note -- lines truncated at 300 characters, if necessary...\n   *************   2236 Schedule:Day:Interval,\n   ************* indicated Name=Sp-Corner_Class_1_Pod_2_ZN_1_FLR_1 Sys-3 Flr-1 Sch-D HPlcmt-south ZN NECB System 3 PSZ Occ Sch Friday\n   ************* Only last 1 lines before error line shown.....\n   *************   2237   Sp-Corner_Class_1_Pod_2_ZN_1_FLR_1 Sys-3 Flr-1 Sch-D HPlcmt-south ZN NECB System 3 PSZ Occ Sch Friday, !- Name\n   ** Warning ** IP: IDF line~2237 Alpha Argument length exceeds maximum, will be truncated=  Sp-Corner_Class_1_Pod_2_ZN_1_FLR_1 Sys-3 Flr-1 Sch-D HPlcmt-south ZN NECB System 3 PSZ Occ Sch Frida\n   **   ~~~   ** Will be processed as Alpha=SP-CORNER_CLASS_1_POD_2_ZN_1_FLR_1 SYS-3 FLR-1 SCH-D HPLCMT-SOUTH ZN NECB SYSTEM 3 PSZ OCC SCH FRIDAY\n   ************* IDF Context for following error/warning message:\n   ************* Note -- lines truncated at 300 characters, if necessary...\n   *************   2251 Schedule:Day:Interval,\n   ************* indicated Name=Sp-Corner_Class_1_Pod_2_ZN_1_FLR_1 Sys-3 Flr-1 Sch-D HPlcmt-south ZN NECB System 3 PSZ Occ Sch Saturday\n   ************* Only last 1 lines before error line shown.....\n   *************   2252   Sp-Corner_Class_1_Pod_2_ZN_1_FLR_1 Sys-3 Flr-1 Sch-D HPlcmt-south ZN NECB System 3 PSZ Occ Sch Saturday, !- Name\n   ** Warning ** IP: IDF line~2252 Alpha Argument length exceeds maximum, will be truncated=  Sp-Corner_Class_1_Pod_2_ZN_1_FLR_1 Sys-3 Flr-1 Sch-D HPlcmt-south ZN NECB System 3 PSZ Occ Sch Saturda\n   **   ~~~   ** Will be processed as Alpha=SP-CORNER_CLASS_1_POD_2_ZN_1_FLR_1 SYS-3 FLR-1 SCH-D HPLCMT-SOUTH ZN NECB SYSTEM 3 PSZ OCC SCH SATURDAY\n   ************* IDF Context for following error/warning message:\n   ************* Note -- lines truncated at 300 characters, if necessary...\n   *************   2258 Schedule:Week:Daily,\n   ************* indicated Name=Schedule:Week:Daily {c1960307-ff6d-4a8b-bdc9-48ab7f69e493}\n   ************* Only last 2 lines before error line shown.....\n   *************   2259   Schedule:Week:Daily {c1960307-ff6d-4a8b-bdc9-48ab7f69e493}, !- Name\n   *************   2260   Sp-Corner_Class_1_Pod_2_ZN_1_FLR_1 Sys-3 Flr-1 Sch-D HPlcmt-south ZN NECB System 3 PSZ Occ Sch Sunday, !- Sunday Schedule:Day Name\n   ** Warning ** IP: IDF line~2260 Alpha Argument length exceeds maximum, will be truncated=  Sp-Corner_Class_1_Pod_2_ZN_1_FLR_1 Sys-3 Flr-1 Sch-D HPlcmt-south ZN NECB System 3 PSZ Occ Sch Sunda\n   **   ~~~   ** Will be processed as Alpha=SP-CORNER_CLASS_1_POD_2_ZN_1_FLR_1 SYS-3 FLR-1 SCH-D HPLCMT-SOUTH ZN NECB SYSTEM 3 PSZ OCC SCH SUNDAY\n   ************* IDF Context for following error/warning message:\n   ************* Note -- lines truncated at 300 characters, if necessary...\n   *************   2258 Schedule:Week:Daily,\n   ************* indicated Name=Schedule:Week:Daily {c1960307-ff6d-4a8b-bdc9-48ab7f69e493}\n   ************* Only last 3 lines before error line shown.....\n   *************   2259   Schedule:Week:Daily {c1960307-ff6d-4a8b-bdc9-48ab7f69e493}, !- Name\n   *************   2260   Sp-Corner_Class_1_Pod_2_ZN_1_FLR_1 Sys-3 Flr-1 Sch-D HPlcmt-south ZN NECB System 3 PSZ Occ Sch Sunday, !- Sunday Schedule:Day Name\n   *************   2261   Sp-Corner_Class_1_Pod_2_ZN_1_FLR_1 Sys-3 Flr-1 Sch-D HPlcmt-south ZN NECB System 3 PSZ Occ Sch Monday, !- Monday Schedule:Day Name\n   ** Warning ** IP: IDF line~2261 Alpha Argument length exceeds maximum, will be truncated=  Sp-Corner_Class_1_Pod_2_ZN_1_FLR_1 Sys-3 Flr-1 Sch-D HPlcmt-south ZN NECB System 3 PSZ Occ Sch Monda\n   **   ~~~   ** Will be processed as Alpha=SP-CORNER_CLASS_1_POD_2_ZN_1_FLR_1 SYS-3 FLR-1 SCH-D HPLCMT-SOUTH ZN NECB SYSTEM 3 PSZ OCC SCH MONDAY\n   ************* IDF Context for following error/warning message:\n   ************* Note -- lines truncated at 300 characters, if necessary...\n   *************   2258 Schedule:Week:Daily,\n   ************* indicated Name=Schedule:Week:Daily {c1960307-ff6d-4a8b-bdc9-48ab7f69e493}\n   ************* Only last 4 lines before error line shown.....\n   *************   2259   Schedule:Week:Daily {c1960307-ff6d-4a8b-bdc9-48ab7f69e493}, !- Name\n   *************   2260   Sp-Corner_Class_1_Pod_2_ZN_1_FLR_1 Sys-3 Flr-1 Sch-D HPlcmt-south ZN NECB System 3 PSZ Occ Sch Sunday, !- Sunday Schedule:Day Name\n   *************   2261   Sp-Corner_Class_1_Pod_2_ZN_1_FLR_1 Sys-3 Flr-1 Sch-D HPlcmt-south ZN NECB System 3 PSZ Occ Sch Monday, !- Monday Schedule:Day Name\n   *************   2262   Sp-Corner_Class_1_Pod_2_ZN_1_FLR_1 Sys-3 Flr-1 Sch-D HPlcmt-south ZN NECB System 3 PSZ Occ Sch Tuesday, !- Tuesday Schedule:Day Name\n   ** Warning ** IP: IDF line~2262 Alpha Argument length exceeds maximum, will be truncated=  Sp-Corner_Class_1_Pod_2_ZN_1_FLR_1 Sys-3 Flr-1 Sch-D HPlcmt-south ZN NECB System 3 PSZ Occ Sch Tuesda\n   **   ~~~   ** Will be processed as Alpha=SP-CORNER_CLASS_1_POD_2_ZN_1_FLR_1 SYS-3 FLR-1 SCH-D HPLCMT-SOUTH ZN NECB SYSTEM 3 PSZ OCC SCH TUESDAY\n   ************* IDF Context for following error/warning message:\n   ************* Note -- lines truncated at 300 characters, if necessary...\n   *************   2258 Schedule:Week:Daily,\n   ************* indicated Name=Schedule:Week:Daily {c1960307-ff6d-4a8b-bdc9-48ab7f69e493}\n   ************* Only last 5 lines before error line shown.....\n   *************   2259   Schedule:Week:Daily {c1960307-ff6d-4a8b-bdc9-48ab7f69e493}, !- Name\n   *************   2260   Sp-Corner_Class_1_Pod_2_ZN_1_FLR_1 Sys-3 Flr-1 Sch-D HPlcmt-south ZN NECB System 3 PSZ Occ Sch Sunday, !- Sunday Schedule:Day Name\n   *************   2261   Sp-Corner_Class_1_Pod_2_ZN_1_FLR_1 Sys-3 Flr-1 Sch-D HPlcmt-south ZN NECB System 3 PSZ Occ Sch Monday, !- Monday Schedule:Day Name\n   *************   2262   Sp-Corner_Class_1_Pod_2_ZN_1_FLR_1 Sys-3 Flr-1 Sch-D HPlcmt-south ZN NECB System 3 PSZ Occ Sch Tuesday, !- Tuesday Schedule:Day Name\n   *************   2263   Sp-Corner_Class_1_Pod_2_ZN_1_FLR_1 Sys-3 Flr-1 Sch-D HPlcmt-south ZN NECB System 3 PSZ Occ Sch Wednesday, !- Wednesday Schedule:Day Name\n   ** Warning ** IP: IDF line~2263 Alpha Argument length exceeds maximum, will be truncated=  Sp-Corner_Class_1_Pod_2_ZN_1_FLR_1 Sys-3 Flr-1 Sch-D HPlcmt-south ZN NECB System 3 PSZ Occ Sch Wednesda\n   **   ~~~   ** Will be processed as Alpha=SP-CORNER_CLASS_1_POD_2_ZN_1_FLR_1 SYS-3 FLR-1 SCH-D HPLCMT-SOUTH ZN NECB SYSTEM 3 PSZ OCC SCH WEDNESDAY\n   ************* IDF Context for following error/warning message:\n   ************* Note -- lines truncated at 300 characters, if necessary...\n   *************   2258 Schedule:Week:Daily,\n   ************* indicated Name=Schedule:Week:Daily {c1960307-ff6d-4a8b-bdc9-48ab7f69e493}\n   ************* Only last 6 lines before error line shown.....\n   *************   2259   Schedule:Week:Daily {c1960307-ff6d-4a8b-bdc9-48ab7f69e493}, !- Name\n   *************   2260   Sp-Corner_Class_1_Pod_2_ZN_1_FLR_1 Sys-3 Flr-1 Sch-D HPlcmt-south ZN NECB System 3 PSZ Occ Sch Sunday, !- Sunday Schedule:Day Name\n   *************   2261   Sp-Corner_Class_1_Pod_2_ZN_1_FLR_1 Sys-3 Flr-1 Sch-D HPlcmt-south ZN NECB System 3 PSZ Occ Sch Monday, !- Monday Schedule:Day Name\n   *************   2262   Sp-Corner_Class_1_Pod_2_ZN_1_FLR_1 Sys-3 Flr-1 Sch-D HPlcmt-south ZN NECB System 3 PSZ Occ Sch Tuesday, !- Tuesday Schedule:Day Name\n   *************   2263   Sp-Corner_Class_1_Pod_2_ZN_1_FLR_1 Sys-3 Flr-1 Sch-D HPlcmt-south ZN NECB System 3 PSZ Occ Sch Wednesday, !- Wednesday Schedule:Day Name\n   *************   2264   Sp-Corner_Class_1_Pod_2_ZN_1_FLR_1 Sys-3 Flr-1 Sch-D HPlcmt-south ZN NECB System 3 PSZ Occ Sch Thursday, !- Thursday Schedule:Day Name\n   ** Warning ** IP: IDF line~2264 Alpha Argument length exceeds maximum, will be truncated=  Sp-Corner_Class_1_Pod_2_ZN_1_FLR_1 Sys-3 Flr-1 Sch-D HPlcmt-south ZN NECB System 3 PSZ Occ Sch Thursda\n   **   ~~~   ** Will be processed as Alpha=SP-CORNER_CLASS_1_POD_2_ZN_1_FLR_1 SYS-3 FLR-1 SCH-D HPLCMT-SOUTH ZN NECB SYSTEM 3 PSZ OCC SCH THURSDAY\n   ************* IDF Context for following error/warning message:\n   ************* Note -- lines truncated at 300 characters, if necessary...\n   *************   2258 Schedule:Week:Daily,\n   ************* indicated Name=Schedule:Week:Daily {c1960307-ff6d-4a8b-bdc9-48ab7f69e493}\n   ************* Only last 7 lines before error line shown.....\n   *************   2259   Schedule:Week:Daily {c1960307-ff6d-4a8b-bdc9-48ab7f69e493}, !- Name\n   *************   2260   Sp-Corner_Class_1_Pod_2_ZN_1_FLR_1 Sys-3 Flr-1 Sch-D HPlcmt-south ZN NECB System 3 PSZ Occ Sch Sunday, !- Sunday Schedule:Day Name\n   *************   2261   Sp-Corner_Class_1_Pod_2_ZN_1_FLR_1 Sys-3 Flr-1 Sch-D HPlcmt-south ZN NECB System 3 PSZ Occ Sch Monday, !- Monday Schedule:Day Name\n   *************   2262   Sp-Corner_Class_1_Pod_2_ZN_1_FLR_1 Sys-3 Flr-1 Sch-D HPlcmt-south ZN NECB System 3 PSZ Occ Sch Tuesday, !- Tuesday Schedule:Day Name\n   *************   2263   Sp-Corner_Class_1_Pod_2_ZN_1_FLR_1 Sys-3 Flr-1 Sch-D HPlcmt-south ZN NECB System 3 PSZ Occ Sch Wednesday, !- Wednesday Schedule:Day Name\n   *************   2264   Sp-Corner_Class_1_Pod_2_ZN_1_FLR_1 Sys-3 Flr-1 Sch-D HPlcmt-south ZN NECB System 3 PSZ Occ Sch Thursday, !- Thursday Schedule:Day Name\n   *************   2265   Sp-Corner_Class_1_Pod_2_ZN_1_FLR_1 Sys-3 Flr-1 Sch-D HPlcmt-south ZN NECB System 3 PSZ Occ Sch Friday, !- Friday Schedule:Day Name\n   ** Warning ** IP: IDF line~2265 Alpha Argument length exceeds maximum, will be truncated=  Sp-Corner_Class_1_Pod_2_ZN_1_FLR_1 Sys-3 Flr-1 Sch-D HPlcmt-south ZN NECB System 3 PSZ Occ Sch Frida\n   **   ~~~   ** Will be processed as Alpha=SP-CORNER_CLASS_1_POD_2_ZN_1_FLR_1 SYS-3 FLR-1 SCH-D HPLCMT-SOUTH ZN NECB SYSTEM 3 PSZ OCC SCH FRIDAY\n   ************* IDF Context for following error/warning message:\n   ************* Note -- lines truncated at 300 characters, if necessary...\n   *************   2258 Schedule:Week:Daily,\n   ************* indicated Name=Schedule:Week:Daily {c1960307-ff6d-4a8b-bdc9-48ab7f69e493}\n   ************* Only last 8 lines before error line shown.....\n   *************   2259   Schedule:Week:Daily {c1960307-ff6d-4a8b-bdc9-48ab7f69e493}, !- Name\n   *************   2260   Sp-Corner_Class_1_Pod_2_ZN_1_FLR_1 Sys-3 Flr-1 Sch-D HPlcmt-south ZN NECB System 3 PSZ Occ Sch Sunday, !- Sunday Schedule:Day Name\n   *************   2261   Sp-Corner_Class_1_Pod_2_ZN_1_FLR_1 Sys-3 Flr-1 Sch-D HPlcmt-south ZN NECB System 3 PSZ Occ Sch Monday, !- Monday Schedule:Day Name\n   *************   2262   Sp-Corner_Class_1_Pod_2_ZN_1_FLR_1 Sys-3 Flr-1 Sch-D HPlcmt-south ZN NECB System 3 PSZ Occ Sch Tuesday, !- Tuesday Schedule:Day Name\n   *************   2263   Sp-Corner_Class_1_Pod_2_ZN_1_FLR_1 Sys-3 Flr-1 Sch-D HPlcmt-south ZN NECB System 3 PSZ Occ Sch Wednesday, !- Wednesday Schedule:Day Name\n   *************   2264   Sp-Corner_Class_1_Pod_2_ZN_1_FLR_1 Sys-3 Flr-1 Sch-D HPlcmt-south ZN NECB System 3 PSZ Occ Sch Thursday, !- Thursday Schedule:Day Name\n   *************   2265   Sp-Corner_Class_1_Pod_2_ZN_1_FLR_1 Sys-3 Flr-1 Sch-D HPlcmt-south ZN NECB System 3 PSZ Occ Sch Friday, !- Friday Schedule:Day Name\n   *************   2266   Sp-Corner_Class_1_Pod_2_ZN_1_FLR_1 Sys-3 Flr-1 Sch-D HPlcmt-south ZN NECB System 3 PSZ Occ Sch Saturday, !- Saturday Schedule:Day Name\n   ** Warning ** IP: IDF line~2266 Alpha Argument length exceeds maximum, will be truncated=  Sp-Corner_Class_1_Pod_2_ZN_1_FLR_1 Sys-3 Flr-1 Sch-D HPlcmt-south ZN NECB System 3 PSZ Occ Sch Saturda\n   **   ~~~   ** Will be processed as Alpha=SP-CORNER_CLASS_1_POD_2_ZN_1_FLR_1 SYS-3 FLR-1 SCH-D HPLCMT-SOUTH ZN NECB SYSTEM 3 PSZ OCC SCH SATURDAY\n   ************* IDF Context for following error/warning message:\n   ************* Note -- lines truncated at 300 characters, if necessary...\n   *************   2258 Schedule:Week:Daily,\n   ************* indicated Name=Schedule:Week:Daily {c1960307-ff6d-4a8b-bdc9-48ab7f69e493}\n   ************* Only last 9 lines before error line shown.....\n   *************   2259   Schedule:Week:Daily {c1960307-ff6d-4a8b-bdc9-48ab7f69e493}, !- Name\n   *************   2260   Sp-Corner_Class_1_Pod_2_ZN_1_FLR_1 Sys-3 Flr-1 Sch-D HPlcmt-south ZN NECB System 3 PSZ Occ Sch Sunday, !- Sunday Schedule:Day Name\n   *************   2261   Sp-Corner_Class_1_Pod_2_ZN_1_FLR_1 Sys-3 Flr-1 Sch-D HPlcmt-south ZN NECB System 3 PSZ Occ Sch Monday, !- Monday Schedule:Day Name\n   *************   2262   Sp-Corner_Class_1_Pod_2_ZN_1_FLR_1 Sys-3 Flr-1 Sch-D HPlcmt-south ZN NECB System 3 PSZ Occ Sch Tuesday, !- Tuesday Schedule:Day Name\n   *************   2263   Sp-Corner_Class_1_Pod_2_ZN_1_FLR_1 Sys-3 Flr-1 Sch-D HPlcmt-south ZN NECB System 3 PSZ Occ Sch Wednesday, !- Wednesday Schedule:Day Name\n   *************   2264   Sp-Corner_Class_1_Pod_2_ZN_1_FLR_1 Sys-3 Flr-1 Sch-D HPlcmt-south ZN NECB System 3 PSZ Occ Sch Thursday, !- Thursday Schedule:Day Name\n   *************   2265   Sp-Corner_Class_1_Pod_2_ZN_1_FLR_1 Sys-3 Flr-1 Sch-D HPlcmt-south ZN NECB System 3 PSZ Occ Sch Friday, !- Friday Schedule:Day Name\n   *************   2266   Sp-Corner_Class_1_Pod_2_ZN_1_FLR_1 Sys-3 Flr-1 Sch-D HPlcmt-south ZN NECB System 3 PSZ Occ Sch Saturday, !- Saturday Schedule:Day Name\n   *************   2267   Sp-Corner_Class_1_Pod_2_ZN_1_FLR_1 Sys-3 Flr-1 Sch-D HPlcmt-south ZN NECB System 3 PSZ Occ Sch Default, !- Holiday Schedule:Day Name\n   ** Warning ** IP: IDF line~2267 Alpha Argument length exceeds maximum, will be truncated=  Sp-Corner_Class_1_Pod_2_ZN_1_FLR_1 Sys-3 Flr-1 Sch-D HPlcmt-south ZN NECB System 3 PSZ Occ Sch Defaul\n   **   ~~~   ** Will be processed as Alpha=SP-CORNER_CLASS_1_POD_2_ZN_1_FLR_1 SYS-3 FLR-1 SCH-D HPLCMT-SOUTH ZN NECB SYSTEM 3 PSZ OCC SCH DEFAULT\n   ************* IDF Context for following error/warning message:\n   ************* Note -- lines truncated at 300 characters, if necessary...\n   *************   2258 Schedule:Week:Daily,\n   ************* indicated Name=Schedule:Week:Daily {c1960307-ff6d-4a8b-bdc9-48ab7f69e493}\n   ************* Only last 10 lines before error line shown.....\n   *************   2259   Schedule:Week:Daily {c1960307-ff6d-4a8b-bdc9-48ab7f69e493}, !- Name\n   *************   2260   Sp-Corner_Class_1_Pod_2_ZN_1_FLR_1 Sys-3 Flr-1 Sch-D HPlcmt-south ZN NECB System 3 PSZ Occ Sch Sunday, !- Sunday Schedule:Day Name\n   *************   2261   Sp-Corner_Class_1_Pod_2_ZN_1_FLR_1 Sys-3 Flr-1 Sch-D HPlcmt-south ZN NECB System 3 PSZ Occ Sch Monday, !- Monday Schedule:Day Name\n   *************   2262   Sp-Corner_Class_1_Pod_2_ZN_1_FLR_1 Sys-3 Flr-1 Sch-D HPlcmt-south ZN NECB System 3 PSZ Occ Sch Tuesday, !- Tuesday Schedule:Day Name\n   *************   2263   Sp-Corner_Class_1_Pod_2_ZN_1_FLR_1 Sys-3 Flr-1 Sch-D HPlcmt-south ZN NECB System 3 PSZ Occ Sch Wednesday, !- Wednesday Schedule:Day Name\n   *************   2264   Sp-Corner_Class_1_Pod_2_ZN_1_FLR_1 Sys-3 Flr-1 Sch-D HPlcmt-south ZN NECB System 3 PSZ Occ Sch Thursday, !- Thursday Schedule:Day Name\n   *************   2265   Sp-Corner_Class_1_Pod_2_ZN_1_FLR_1 Sys-3 Flr-1 Sch-D HPlcmt-south ZN NECB System 3 PSZ Occ Sch Friday, !- Friday Schedule:Day Name\n   *************   2266   Sp-Corner_Class_1_Pod_2_ZN_1_FLR_1 Sys-3 Flr-1 Sch-D HPlcmt-south ZN NECB System 3 PSZ Occ Sch Saturday, !- Saturday Schedule:Day Name\n   *************   2267   Sp-Corner_Class_1_Pod_2_ZN_1_FLR_1 Sys-3 Flr-1 Sch-D HPlcmt-south ZN NECB System 3 PSZ Occ Sch Default, !- Holiday Schedule:Day Name\n   *************   2268   Sp-Corner_Class_1_Pod_2_ZN_1_FLR_1 Sys-3 Flr-1 Sch-D HPlcmt-south ZN NECB System 3 PSZ Occ Sch Summer Design Day, !- SummerDesignDay Schedule:Day Name\n   ** Warning ** IP: IDF line~2268 Alpha Argument length exceeds maximum, will be truncated=  Sp-Corner_Class_1_Pod_2_ZN_1_FLR_1 Sys-3 Flr-1 Sch-D HPlcmt-south ZN NECB System 3 PSZ Occ Sch Summer Design Da\n   **   ~~~   ** Will be processed as Alpha=SP-CORNER_CLASS_1_POD_2_ZN_1_FLR_1 SYS-3 FLR-1 SCH-D HPLCMT-SOUTH ZN NECB SYSTEM 3 PSZ OCC SCH SUMMER DESIGN DAY\n   ************* IDF Context for following error/warning message:\n   ************* Note -- lines truncated at 300 characters, if necessary...\n   *************   2258 Schedule:Week:Daily,\n   ************* indicated Name=Schedule:Week:Daily {c1960307-ff6d-4a8b-bdc9-48ab7f69e493}\n   ************* Only last 10 lines before error line shown.....\n   *************   2260   Sp-Corner_Class_1_Pod_2_ZN_1_FLR_1 Sys-3 Flr-1 Sch-D HPlcmt-south ZN NECB System 3 PSZ Occ Sch Sunday, !- Sunday Schedule:Day Name\n   *************   2261   Sp-Corner_Class_1_Pod_2_ZN_1_FLR_1 Sys-3 Flr-1 Sch-D HPlcmt-south ZN NECB System 3 PSZ Occ Sch Monday, !- Monday Schedule:Day Name\n   *************   2262   Sp-Corner_Class_1_Pod_2_ZN_1_FLR_1 Sys-3 Flr-1 Sch-D HPlcmt-south ZN NECB System 3 PSZ Occ Sch Tuesday, !- Tuesday Schedule:Day Name\n   *************   2263   Sp-Corner_Class_1_Pod_2_ZN_1_FLR_1 Sys-3 Flr-1 Sch-D HPlcmt-south ZN NECB System 3 PSZ Occ Sch Wednesday, !- Wednesday Schedule:Day Name\n   *************   2264   Sp-Corner_Class_1_Pod_2_ZN_1_FLR_1 Sys-3 Flr-1 Sch-D HPlcmt-south ZN NECB System 3 PSZ Occ Sch Thursday, !- Thursday Schedule:Day Name\n   *************   2265   Sp-Corner_Class_1_Pod_2_ZN_1_FLR_1 Sys-3 Flr-1 Sch-D HPlcmt-south ZN NECB System 3 PSZ Occ Sch Friday, !- Friday Schedule:Day Name\n   *************   2266   Sp-Corner_Class_1_Pod_2_ZN_1_FLR_1 Sys-3 Flr-1 Sch-D HPlcmt-south ZN NECB System 3 PSZ Occ Sch Saturday, !- Saturday Schedule:Day Name\n   *************   2267   Sp-Corner_Class_1_Pod_2_ZN_1_FLR_1 Sys-3 Flr-1 Sch-D HPlcmt-south ZN NECB System 3 PSZ Occ Sch Default, !- Holiday Schedule:Day Name\n   *************   2268   Sp-Corner_Class_1_Pod_2_ZN_1_FLR_1 Sys-3 Flr-1 Sch-D HPlcmt-south ZN NECB System 3 PSZ Occ Sch Summer Design Day, !- SummerDesignDay Schedule:Day Name\n   *************   2269   Sp-Corner_Class_1_Pod_2_ZN_1_FLR_1 Sys-3 Flr-1 Sch-D HPlcmt-south ZN NECB System 3 PSZ Occ Sch Winter Design Day, !- WinterDesignDay Schedule:Day Name\n   ** Warning ** IP: IDF line~2269 Alpha Argument length exceeds maximum, will be truncated=  Sp-Corner_Class_1_Pod_2_ZN_1_FLR_1 Sys-3 Flr-1 Sch-D HPlcmt-south ZN NECB System 3 PSZ Occ Sch Winter Design Da\n   **   ~~~   ** Will be processed as Alpha=SP-CORNER_CLASS_1_POD_2_ZN_1_FLR_1 SYS-3 FLR-1 SCH-D HPLCMT-SOUTH ZN NECB SYSTEM 3 PSZ OCC SCH WINTER DESIGN DAY\n   ************* IDF Context for following error/warning message:\n   ************* Note -- lines truncated at 300 characters, if necessary...\n   *************   2258 Schedule:Week:Daily,\n   ************* indicated Name=Schedule:Week:Daily {c1960307-ff6d-4a8b-bdc9-48ab7f69e493}\n   ************* Only last 10 lines before error line shown.....\n   *************   2261   Sp-Corner_Class_1_Pod_2_ZN_1_FLR_1 Sys-3 Flr-1 Sch-D HPlcmt-south ZN NECB System 3 PSZ Occ Sch Monday, !- Monday Schedule:Day Name\n   *************   2262   Sp-Corner_Class_1_Pod_2_ZN_1_FLR_1 Sys-3 Flr-1 Sch-D HPlcmt-south ZN NECB System 3 PSZ Occ Sch Tuesday, !- Tuesday Schedule:Day Name\n   *************   2263   Sp-Corner_Class_1_Pod_2_ZN_1_FLR_1 Sys-3 Flr-1 Sch-D HPlcmt-south ZN NECB System 3 PSZ Occ Sch Wednesday, !- Wednesday Schedule:Day Name\n   *************   2264   Sp-Corner_Class_1_Pod_2_ZN_1_FLR_1 Sys-3 Flr-1 Sch-D HPlcmt-south ZN NECB System 3 PSZ Occ Sch Thursday, !- Thursday Schedule:Day Name\n   *************   2265   Sp-Corner_Class_1_Pod_2_ZN_1_FLR_1 Sys-3 Flr-1 Sch-D HPlcmt-south ZN NECB System 3 PSZ Occ Sch Friday, !- Friday Schedule:Day Name\n   *************   2266   Sp-Corner_Class_1_Pod_2_ZN_1_FLR_1 Sys-3 Flr-1 Sch-D HPlcmt-south ZN NECB System 3 PSZ Occ Sch Saturday, !- Saturday Schedule:Day Name\n   *************   2267   Sp-Corner_Class_1_Pod_2_ZN_1_FLR_1 Sys-3 Flr-1 Sch-D HPlcmt-south ZN NECB System 3 PSZ Occ Sch Default, !- Holiday Schedule:Day Name\n   *************   2268   Sp-Corner_Class_1_Pod_2_ZN_1_FLR_1 Sys-3 Flr-1 Sch-D HPlcmt-south ZN NECB System 3 PSZ Occ Sch Summer Design Day, !- SummerDesignDay Schedule:Day Name\n   *************   2269   Sp-Corner_Class_1_Pod_2_ZN_1_FLR_1 Sys-3 Flr-1 Sch-D HPlcmt-south ZN NECB System 3 PSZ Occ Sch Winter Design Day, !- WinterDesignDay Schedule:Day Name\n   *************   2270   Sp-Corner_Class_1_Pod_2_ZN_1_FLR_1 Sys-3 Flr-1 Sch-D HPlcmt-south ZN NECB System 3 PSZ Occ Sch Default, !- CustomDay1 Schedule:Day Name\n   ** Warning ** IP: IDF line~2270 Alpha Argument length exceeds maximum, will be truncated=  Sp-Corner_Class_1_Pod_2_ZN_1_FLR_1 Sys-3 Flr-1 Sch-D HPlcmt-south ZN NECB System 3 PSZ Occ Sch Defaul\n   **   ~~~   ** Will be processed as Alpha=SP-CORNER_CLASS_1_POD_2_ZN_1_FLR_1 SYS-3 FLR-1 SCH-D HPLCMT-SOUTH ZN NECB SYSTEM 3 PSZ OCC SCH DEFAULT\n   ************* IDF Context for following error/warning message:\n   ************* Note -- lines truncated at 300 characters, if necessary...\n   *************   2258 Schedule:Week:Daily,\n   ************* indicated Name=Schedule:Week:Daily {c1960307-ff6d-4a8b-bdc9-48ab7f69e493}\n   ************* Only last 10 lines before error line shown.....\n   *************   2262   Sp-Corner_Class_1_Pod_2_ZN_1_FLR_1 Sys-3 Flr-1 Sch-D HPlcmt-south ZN NECB System 3 PSZ Occ Sch Tuesday, !- Tuesday Schedule:Day Name\n   *************   2263   Sp-Corner_Class_1_Pod_2_ZN_1_FLR_1 Sys-3 Flr-1 Sch-D HPlcmt-south ZN NECB System 3 PSZ Occ Sch Wednesday, !- Wednesday Schedule:Day Name\n   *************   2264   Sp-Corner_Class_1_Pod_2_ZN_1_FLR_1 Sys-3 Flr-1 Sch-D HPlcmt-south ZN NECB System 3 PSZ Occ Sch Thursday, !- Thursday Schedule:Day Name\n   *************   2265   Sp-Corner_Class_1_Pod_2_ZN_1_FLR_1 Sys-3 Flr-1 Sch-D HPlcmt-south ZN NECB System 3 PSZ Occ Sch Friday, !- Friday Schedule:Day Name\n   *************   2266   Sp-Corner_Class_1_Pod_2_ZN_1_FLR_1 Sys-3 Flr-1 Sch-D HPlcmt-south ZN NECB System 3 PSZ Occ Sch Saturday, !- Saturday Schedule:Day Name\n   *************   2267   Sp-Corner_Class_1_Pod_2_ZN_1_FLR_1 Sys-3 Flr-1 Sch-D HPlcmt-south ZN NECB System 3 PSZ Occ Sch Default, !- Holiday Schedule:Day Name\n   *************   2268   Sp-Corner_Class_1_Pod_2_ZN_1_FLR_1 Sys-3 Flr-1 Sch-D HPlcmt-south ZN NECB System 3 PSZ Occ Sch Summer Design Day, !- SummerDesignDay Schedule:Day Name\n   *************   2269   Sp-Corner_Class_1_Pod_2_ZN_1_FLR_1 Sys-3 Flr-1 Sch-D HPlcmt-south ZN NECB System 3 PSZ Occ Sch Winter Design Day, !- WinterDesignDay Schedule:Day Name\n   *************   2270   Sp-Corner_Class_1_Pod_2_ZN_1_FLR_1 Sys-3 Flr-1 Sch-D HPlcmt-south ZN NECB System 3 PSZ Occ Sch Default, !- CustomDay1 Schedule:Day Name\n   *************   2271   Sp-Corner_Class_1_Pod_2_ZN_1_FLR_1 Sys-3 Flr-1 Sch-D HPlcmt-south ZN NECB System 3 PSZ Occ Sch Default; !- CustomDay2 Schedule:Day Name\n   ** Warning ** IP: IDF line~2271 Alpha Argument length exceeds maximum, will be truncated=  Sp-Corner_Class_1_Pod_2_ZN_1_FLR_1 Sys-3 Flr-1 Sch-D HPlcmt-south ZN NECB System 3 PSZ Occ Sch Defaul\n   **   ~~~   ** Will be processed as Alpha=SP-CORNER_CLASS_1_POD_2_ZN_1_FLR_1 SYS-3 FLR-1 SCH-D HPLCMT-SOUTH ZN NECB SYSTEM 3 PSZ OCC SCH DEFAULT\n   ************* IDF Context for following error/warning message:\n   ************* Note -- lines truncated at 300 characters, if necessary...\n   *************   2282 Schedule:Day:Interval,\n   ************* indicated Name=Sp-Corner_Class_1_Pod_2_ZN_1_FLR_1 Sys-3 Flr-1 Sch-D HPlcmt-south ZN NECB System 3 PSZ Occ Sch Default\n   ************* Only last 1 lines before error line shown.....\n   *************   2283   Sp-Corner_Class_1_Pod_2_ZN_1_FLR_1 Sys-3 Flr-1 Sch-D HPlcmt-south ZN NECB System 3 PSZ Occ Sch Default, !- Name\n   ** Warning ** IP: IDF line~2283 Alpha Argument length exceeds maximum, will be truncated=  Sp-Corner_Class_1_Pod_2_ZN_1_FLR_1 Sys-3 Flr-1 Sch-D HPlcmt-south ZN NECB System 3 PSZ Occ Sch Defaul\n   **   ~~~   ** Will be processed as Alpha=SP-CORNER_CLASS_1_POD_2_ZN_1_FLR_1 SYS-3 FLR-1 SCH-D HPLCMT-SOUTH ZN NECB SYSTEM 3 PSZ OCC SCH DEFAULT\n   ************* IDF Context for following error/warning message:\n   ************* Note -- lines truncated at 300 characters, if necessary...\n   *************   2289 Schedule:Day:Interval,\n   ************* indicated Name=Sp-Corner_Class_1_Pod_2_ZN_1_FLR_1 Sys-3 Flr-1 Sch-D HPlcmt-south ZN NECB System 3 PSZ Occ Sch Summer Design Day\n   ************* Only last 1 lines before error line shown.....\n   *************   2290   Sp-Corner_Class_1_Pod_2_ZN_1_FLR_1 Sys-3 Flr-1 Sch-D HPlcmt-south ZN NECB System 3 PSZ Occ Sch Summer Design Day, !- Name\n   ** Warning ** IP: IDF line~2290 Alpha Argument length exceeds maximum, will be truncated=  Sp-Corner_Class_1_Pod_2_ZN_1_FLR_1 Sys-3 Flr-1 Sch-D HPlcmt-south ZN NECB System 3 PSZ Occ Sch Summer Design Da\n   **   ~~~   ** Will be processed as Alpha=SP-CORNER_CLASS_1_POD_2_ZN_1_FLR_1 SYS-3 FLR-1 SCH-D HPLCMT-SOUTH ZN NECB SYSTEM 3 PSZ OCC SCH SUMMER DESIGN DAY\n   ************* IDF Context for following error/warning message:\n   ************* Note -- lines truncated at 300 characters, if necessary...\n   *************   2296 Schedule:Day:Interval,\n   ************* indicated Name=Sp-Corner_Class_1_Pod_2_ZN_1_FLR_1 Sys-3 Flr-1 Sch-D HPlcmt-south ZN NECB System 3 PSZ Occ Sch Winter Design Day\n   ************* Only last 1 lines before error line shown.....\n   *************   2297   Sp-Corner_Class_1_Pod_2_ZN_1_FLR_1 Sys-3 Flr-1 Sch-D HPlcmt-south ZN NECB System 3 PSZ Occ Sch Winter Design Day, !- Name\n   ** Warning ** IP: IDF line~2297 Alpha Argument length exceeds maximum, will be truncated=  Sp-Corner_Class_1_Pod_2_ZN_1_FLR_1 Sys-3 Flr-1 Sch-D HPlcmt-south ZN NECB System 3 PSZ Occ Sch Winter Design Da\n   **   ~~~   ** Will be processed as Alpha=SP-CORNER_CLASS_1_POD_2_ZN_1_FLR_1 SYS-3 FLR-1 SCH-D HPLCMT-SOUTH ZN NECB SYSTEM 3 PSZ OCC SCH WINTER DESIGN DAY\n   ************* IDF Context for following error/warning message:\n   ************* Note -- lines truncated at 300 characters, if necessary...\n   *************   2569 Schedule:Day:Interval,\n   ************* indicated Name=Sp-Corner_Class_1_Pod_3_ZN_1_FLR_1 Sys-3 Flr-1 Sch-D HPlcmt-south ZN NECB System 3 PSZ Occ Sch Sunday\n   ************* Only last 1 lines before error line shown.....\n   *************   2570   Sp-Corner_Class_1_Pod_3_ZN_1_FLR_1 Sys-3 Flr-1 Sch-D HPlcmt-south ZN NECB System 3 PSZ Occ Sch Sunday, !- Name\n   ** Warning ** IP: IDF line~2570 Alpha Argument length exceeds maximum, will be truncated=  Sp-Corner_Class_1_Pod_3_ZN_1_FLR_1 Sys-3 Flr-1 Sch-D HPlcmt-south ZN NECB System 3 PSZ Occ Sch Sunda\n   **   ~~~   ** Will be processed as Alpha=SP-CORNER_CLASS_1_POD_3_ZN_1_FLR_1 SYS-3 FLR-1 SCH-D HPLCMT-SOUTH ZN NECB SYSTEM 3 PSZ OCC SCH SUNDAY\n   ************* IDF Context for following error/warning message:\n   ************* Note -- lines truncated at 300 characters, if necessary...\n   *************   2576 Schedule:Day:Interval,\n   ************* indicated Name=Sp-Corner_Class_1_Pod_3_ZN_1_FLR_1 Sys-3 Flr-1 Sch-D HPlcmt-south ZN NECB System 3 PSZ Occ Sch Monday\n   ************* Only last 1 lines before error line shown.....\n   *************   2577   Sp-Corner_Class_1_Pod_3_ZN_1_FLR_1 Sys-3 Flr-1 Sch-D HPlcmt-south ZN NECB System 3 PSZ Occ Sch Monday, !- Name\n   ** Warning ** IP: IDF line~2577 Alpha Argument length exceeds maximum, will be truncated=  Sp-Corner_Class_1_Pod_3_ZN_1_FLR_1 Sys-3 Flr-1 Sch-D HPlcmt-south ZN NECB System 3 PSZ Occ Sch Monda\n   **   ~~~   ** Will be processed as Alpha=SP-CORNER_CLASS_1_POD_3_ZN_1_FLR_1 SYS-3 FLR-1 SCH-D HPLCMT-SOUTH ZN NECB SYSTEM 3 PSZ OCC SCH MONDAY\n   ************* IDF Context for following error/warning message:\n   ************* Note -- lines truncated at 300 characters, if necessary...\n   *************   2591 Schedule:Day:Interval,\n   ************* indicated Name=Sp-Corner_Class_1_Pod_3_ZN_1_FLR_1 Sys-3 Flr-1 Sch-D HPlcmt-south ZN NECB System 3 PSZ Occ Sch Tuesday\n   ************* Only last 1 lines before error line shown.....\n   *************   2592   Sp-Corner_Class_1_Pod_3_ZN_1_FLR_1 Sys-3 Flr-1 Sch-D HPlcmt-south ZN NECB System 3 PSZ Occ Sch Tuesday, !- Name\n   ** Warning ** IP: IDF line~2592 Alpha Argument length exceeds maximum, will be truncated=  Sp-Corner_Class_1_Pod_3_ZN_1_FLR_1 Sys-3 Flr-1 Sch-D HPlcmt-south ZN NECB System 3 PSZ Occ Sch Tuesda\n   **   ~~~   ** Will be processed as Alpha=SP-CORNER_CLASS_1_POD_3_ZN_1_FLR_1 SYS-3 FLR-1 SCH-D HPLCMT-SOUTH ZN NECB SYSTEM 3 PSZ OCC SCH TUESDAY\n   ************* IDF Context for following error/warning message:\n   ************* Note -- lines truncated at 300 characters, if necessary...\n   *************   2606 Schedule:Day:Interval,\n   ************* indicated Name=Sp-Corner_Class_1_Pod_3_ZN_1_FLR_1 Sys-3 Flr-1 Sch-D HPlcmt-south ZN NECB System 3 PSZ Occ Sch Wednesday\n   ************* Only last 1 lines before error line shown.....\n   *************   2607   Sp-Corner_Class_1_Pod_3_ZN_1_FLR_1 Sys-3 Flr-1 Sch-D HPlcmt-south ZN NECB System 3 PSZ Occ Sch Wednesday, !- Name\n   ** Warning ** IP: IDF line~2607 Alpha Argument length exceeds maximum, will be truncated=  Sp-Corner_Class_1_Pod_3_ZN_1_FLR_1 Sys-3 Flr-1 Sch-D HPlcmt-south ZN NECB System 3 PSZ Occ Sch Wednesda\n   **   ~~~   ** Will be processed as Alpha=SP-CORNER_CLASS_1_POD_3_ZN_1_FLR_1 SYS-3 FLR-1 SCH-D HPLCMT-SOUTH ZN NECB SYSTEM 3 PSZ OCC SCH WEDNESDAY\n   ************* IDF Context for following error/warning message:\n   ************* Note -- lines truncated at 300 characters, if necessary...\n   *************   2621 Schedule:Day:Interval,\n   ************* indicated Name=Sp-Corner_Class_1_Pod_3_ZN_1_FLR_1 Sys-3 Flr-1 Sch-D HPlcmt-south ZN NECB System 3 PSZ Occ Sch Thursday\n   ************* Only last 1 lines before error line shown.....\n   *************   2622   Sp-Corner_Class_1_Pod_3_ZN_1_FLR_1 Sys-3 Flr-1 Sch-D HPlcmt-south ZN NECB System 3 PSZ Occ Sch Thursday, !- Name\n   ** Warning ** IP: IDF line~2622 Alpha Argument length exceeds maximum, will be truncated=  Sp-Corner_Class_1_Pod_3_ZN_1_FLR_1 Sys-3 Flr-1 Sch-D HPlcmt-south ZN NECB System 3 PSZ Occ Sch Thursda\n   **   ~~~   ** Will be processed as Alpha=SP-CORNER_CLASS_1_POD_3_ZN_1_FLR_1 SYS-3 FLR-1 SCH-D HPLCMT-SOUTH ZN NECB SYSTEM 3 PSZ OCC SCH THURSDAY\n   ************* IDF Context for following error/warning message:\n   ************* Note -- lines truncated at 300 characters, if necessary...\n   *************   2636 Schedule:Day:Interval,\n   ************* indicated Name=Sp-Corner_Class_1_Pod_3_ZN_1_FLR_1 Sys-3 Flr-1 Sch-D HPlcmt-south ZN NECB System 3 PSZ Occ Sch Friday\n   ************* Only last 1 lines before error line shown.....\n   *************   2637   Sp-Corner_Class_1_Pod_3_ZN_1_FLR_1 Sys-3 Flr-1 Sch-D HPlcmt-south ZN NECB System 3 PSZ Occ Sch Friday, !- Name\n   ** Warning ** IP: IDF line~2637 Alpha Argument length exceeds maximum, will be truncated=  Sp-Corner_Class_1_Pod_3_ZN_1_FLR_1 Sys-3 Flr-1 Sch-D HPlcmt-south ZN NECB System 3 PSZ Occ Sch Frida\n   **   ~~~   ** Will be processed as Alpha=SP-CORNER_CLASS_1_POD_3_ZN_1_FLR_1 SYS-3 FLR-1 SCH-D HPLCMT-SOUTH ZN NECB SYSTEM 3 PSZ OCC SCH FRIDAY\n   ************* IDF Context for following error/warning message:\n   ************* Note -- lines truncated at 300 characters, if necessary...\n   *************   2651 Schedule:Day:Interval,\n   ************* indicated Name=Sp-Corner_Class_1_Pod_3_ZN_1_FLR_1 Sys-3 Flr-1 Sch-D HPlcmt-south ZN NECB System 3 PSZ Occ Sch Saturday\n   ************* Only last 1 lines before error line shown.....\n   *************   2652   Sp-Corner_Class_1_Pod_3_ZN_1_FLR_1 Sys-3 Flr-1 Sch-D HPlcmt-south ZN NECB System 3 PSZ Occ Sch Saturday, !- Name\n   ** Warning ** IP: IDF line~2652 Alpha Argument length exceeds maximum, will be truncated=  Sp-Corner_Class_1_Pod_3_ZN_1_FLR_1 Sys-3 Flr-1 Sch-D HPlcmt-south ZN NECB System 3 PSZ Occ Sch Saturda\n   **   ~~~   ** Will be processed as Alpha=SP-CORNER_CLASS_1
[...]
2BfBr0HVV8GvTNVnwa9H1YfBr0LVp8GvR9iXwa9C2LfBr03Yx8GvSNjnwaNdS55vZIPo0a6lxzUyWfRg0rucZW6TRK31BSzVYtXmHCIEHbKjYJujPYJOi+YJOgbRWbBG2r2CRoW8UmQdsqNgl6umWT0NgqPg16uuXToKdbPg3aVvFp0LaKT4O2VXwatK3i06BtFZ8Gbav4NGqoc42t4tOooc41topPo4aVXGOrdBqlG8FXs1WLneIZJGhbxSZBdwabBN0XbBK0rWKToG0VmwRtq9gkaFvFJkFPt2wSGlvFp0FPt3wa9HTLp0HbKj4N2lbxadC2ik+DtlV8GrSt4tOgbRWfRg11rrFVfBo11LnGVvFp1LCSa2yVTqN0v91qtmqxIS+DBG2r2CTozmCToPuCTYK2VWwStK1ik6BtFZsEbavYJOjplk1CY6v4NOjplk+Dnm75NGhbxadB2yo+DdpW8WnQtopPg7ZVfBq0reLTqKHONbaKT6OGOtfYKj6NGlZyja3SaZRua1jNVi32PWSQoG0VmwTdGWwSdF+wSdC2ik2CtlVsErStYpOgbRWbBD3dskloN1vj0tDtVsWlodvIiktDt8cVl4Zu+ysuDd2eb1wauu3guDR0O8Vxaeg2kePSqKHOtVvPcWnUUOfaDeu4NGpYyTW2aqXxvcoOr8sdncWxiOT9agfZYuPYRno3bhY7wJZuFbvaFjqV2ft4Fvlpo9tuCsfpNkVH/eR2q203+5BjPO127fs9L5PjOJmfPATpYlvlp+uvsPd0nuAi8WVyOVO7HFc+UXHMX3J8kl46S+QCQ23UvGz3De/7jTDCCCOMMMIII4wwwggjjDDCCCOMMMIII4wwwggjjDDCCCOMMMIII4wwwggjjDDCCCOMMMIII4wwwggjjDDCCCOMMMIII4zwXyo8t+M7mSSBLz956sFax27/j8+rqkdj05ePxl7JJJDp8vFaq7l6gHgaxpkdBpEsfUQ2fe053fIna1O7ePX8NA69LIijHMpKMzltDeQoTqRV7cnnj3IsI//lBS0+a+y1m6KjnlxuqweZ1T9WKEeZAitJvUpr98cyO4sy1T65xGgWDQvSxrb4oyTFilA+nX1d+iy3OoKRaGSTILXToleqCanj2Ul23n5n3nDS+A+wabYVvnp0PGdf5u1P4zRQCU/zj6tczepQaV6hSuJ7M6QVVhD5UtVDy2kanr06btY9cRTIUI23xrJNF3UyTuLZVPri55/F35afP9j9iZcun39XBbb9PDp/NZo3iO2Nx+dKww5lNM4m4p1wxT+FdRKGljh6+Y00DIay0XK2r9vft0vr7U9XEieicZNfSvsXcZPLLIfqUld99vd8xjHvIHWoYbzMd33z3f4h5+L4+HjReOtlLLIuu/3G9FJXxyCR3o91Tn40PMf0+6q9lld3rIa1GgzLkVJs5GD3vTQNxpH0e2qLiPS6aMnv6zXlqqOns3TSWLcv8i49WvTn+pUUhkdVrtJW31xXJc2S+IesprP47rpK8dQbBtm8mtTyy2tfVSGxklo3y2oieTmtrFMexpOPOlbl/HLiES3hmGYzKbfqrI/NYlWt9P3HMk+hjp0d8eX3r+LfF79fiquLy6+/ff5VfLz49bee+HB2eVYtwXk+a8sHT1k0kcUijZNMRLPbfBwMRbGlSSq8dJiblyAaV8i4anuV59nK7DXFoPrkkshslkRi6iWpPA9jL2t4asrfzrvy2WeD4rNKjVlu0Z7JLi+hLPHjZnd6efKfRbkXxd7Y8uXIm4WZmCZxPofJrabY+ungoNc7O9va8MYzwAEOcIADHOAABzjAAQ5wgPPXxBHp7Db/L7DwpfpQ+N5cESXSBw1oQAMa0IAGNKABDWhAAxrQ6Gnui1uz/otmEM4kcIADHOAABzjAAQ5wgAMc4ABnHZyn9wY66r2BVzPqvYEdp/gL28nJ7u7hIUhBClKQghSkIAUpSEEKUpCCFKQgfRukbkHqZRRpuyDtdFz3YA+kIAUpSEEKUpCCFKQgBSlIQQpSkL4N0o4iPU8CgtQ9LEgdZ3+/0wEpSEEKUpCCFKQgBSlIQQpSkIIUpG+DdFeRfp3MKNKDgvQwP7rvQQpSkIIUpCAFKUhBClKQghSkIAXp2yDtKtJ/SZ8i3S9IT097vf19kIIUpCAFKUhBClKQghSkIAUpSEH6Nkj3it9MzCRFuleQ9np7eyAFKUhBClKQghSkIAUpSEEKUpCC9K2Q7ivSTzG1s6DbLUgPDly32wUpSEEKUpCCFKQgBSlIQQpSkIIUpLWRrlD8xLtvlCZ7sLMgC+XVxJtKO5MPWWPrQzxL0nKM+Z/PPA1uZZQGcRTKtMhQkmJnR5z4vvBEkUncB9lEpPGtFH6n5Mz0bmx706mM/IaltK3tkhNWh+1lWdKwHqym2GsbnjTPT3Krn5Rm81Au8FpeNJzESX6+FcqRAe0yxyiOsta9DMaTTOUYxKFfPceib66mrU+zMOv3wnyM9p3+l9jvd/rfPuc/nn+87Dviap62OuI8TFr5z8NJ61R8+BIOb7NWGs/yfvn2WXw+671XX8vkreiIL1ffxMVwqL67ta3r6Xc76TAJptk/yO+82/GDu9fD5Dl0sjyXCPxja6jKoJe3nBdEMuk7TtcSRXseW36QTkNvfhREYR5rDcJ4+OMXiwbMsy6uQWTzaX6+atKdG+/OW3yqPVMdd16ihqw4Fn5wOw2lHcn7q7txw/rpFcim2G23i39Ka1Dl9b3MyxNf/2GF3kCG1pHly5GXd7WYJvEoCKXVXET6D9aRY7eb1p0XzuTy56GaqvJz8tmn1zs7sx6blfK4THk6THl2mfJ0mfLsMeXZZ8pzwJTnkCmP0+ZKxDWiHa4h7XCNaYdrUDtco9rhGtYO17h2uAa2wzWyXa6R7bLN1Vwj2+Ua2a7RyBbp7Pb2xburK61oifQN0pBtZJaGbCGzNGT7mKUh694sDVn1ZmnImjdLQ1a8WRqy3s3S0AuZYR6mcUwvY4Z5mEYyvYgZ5mEay/QSZpiHaTTTC5hhHqbxTC9fhnm45mWm8UyvXYZ5qo/n+yDKzJetgfqoeh6yeQzzkM1jmIdsHsM8ZLkb5iHL3TAPWe6GechyN8xDlrthHnr9Mk3ENaLpFcw0EdeYptcw00Rco5pexUwTcY1reh0zTcQ1sumVzDQR21zNNbLpxcw0UfWR/fTHjNKXDVPLXPvFf/QWbyNmkHA3L9HZvMTu5iW6m5fY27zE/uYlDjYvcbh5iRcr+6Y0aqhvp4YCd2qocKeGEndqqHGnhiJ3aqhyp4Yyd2qoc7eGOnfrWMdrqHO3hjp316vz0nc6VrNVi5c+MkjQvcEmQXcGmwTdF2wS9JTLJkHPuGwS9ITLJkHPt2wS9HTLJqGxVXwaNdS3xlbxadRQ4RpbxadRQ41rbBWfRg1VrrFVfBo11LnGVvFp1LGO11DnGlvFp7FenZe+OquarVq8W4tBgu4NNgm6M9gk6L5gk6CnXDYJesZlk6AnXDYJer5lk6CnWzYJzQ2BfBr0HVV8GvTNVnwa9H1YfBr0LVp8GvR9iXwa9C2LfBr03Yx8GvSNjnwaNdS55vZIPo0a6lxzUyWfRg0rucZW6TRK31BSzVYtXmHCIEHbKjYJujPYJOi+YJOgbRWbBG2r2CRoW8UmQdsqNgl6umWT0NgqPg16uuXToKdbPg3aVvFp0LaKT4O2VXwatK3i06BtFZ8Gbav4NGqoc42t4tOooc41topPo4aVXGOrdBqlG8FXs1WLneIZJGhbxSZBdwabBN0XbBK0rWKToG0VmwRtq9gkaFvFJkFPt2wSGlvFp0FPt3wa9HTLp0HbKj4N2lbxadC2ik+DtlV8GrSt4tOgbRWfRg11rrFVfBo11LnGVvFp1LCSa2yVTqN0v91qtmqxIS+DBG2r2CTozmCToPuCTYK2VWwStK1ik6BtFZsEbavYJOjplk1CY6v4NOjplk+Dnm75NGhbxadB2yo+DdpW8WnQtopPg7ZVfBq0reLTqKHONbaKT6OGOtfYKj6NGlZyja3SaZRua1jNVi32PWSQoG0VmwTdGWwSdF+wSdC2ik2CtlVsErStYpOgbRWbBD3dskloN1vj0tDtVsWlodvIiktDt8cVl4Zu+ysuDd2eb1wauu3guDR0O8Vxaeg2kePSqKHOtVvPcWnUUOfaDeu4NGpYyTW2aqXxvcoOr8sdncWxiOT9agfZYuPYRno3bhY7wJZuFbvaFjqV2ft4Fvlpo9tuCsfpNkVH/eR2q203+5BjPO127fs9L5PjOJmfPATpYlvlp+uvsPd0nuAi8WVyOVO7HFc+UXHMX3J8kl46S+QCQ23UvGz3De/7jTDCCCOMMMIII4wwwggjjDDCCCOMMMIII4wwwggjjDDCCCOMMMIII4wwwggjjDDCCCOMMMIII4wwwggjjDDCCCOMMMIII4zwXyo8t+M7mSSBLz956sFax27/j8+rqkdj05ePxl7JJJDp8vFaq7l6gHgaxpkdBpEsfUQ2fe053fIna1O7ePX8NA69LIijHMpKMzltDeQoTqRV7cnnj3IsI//lBS0+a+y1m6KjnlxuqweZ1T9WKEeZAitJvUpr98cyO4sy1T65xGgWDQvSxrb4oyTFilA+nX1d+iy3OoKRaGSTILXToleqCanj2Ul23n5n3nDS+A+wabYVvnp0PGdf5u1P4zRQCU/zj6tczepQaV6hSuJ7M6QVVhD5UtVDy2kanr06btY9cRTIUI23xrJNF3UyTuLZVPri55/F35afP9j9iZcun39XBbb9PDp/NZo3iO2Nx+dKww5lNM4m4p1wxT+FdRKGljh6+Y00DIay0XK2r9vft0vr7U9XEieicZNfSvsXcZPLLIfqUld99vd8xjHvIHWoYbzMd33z3f4h5+L4+HjReOtlLLIuu/3G9FJXxyCR3o91Tn40PMf0+6q9lld3rIa1GgzLkVJs5GD3vTQNxpH0e2qLiPS6aMnv6zXlqqOns3TSWLcv8i49WvTn+pUUhkdVrtJW31xXJc2S+IesprP47rpK8dQbBtm8mtTyy2tfVSGxklo3y2oieTmtrFMexpOPOlbl/HLiES3hmGYzKbfqrI/NYlWt9P3HMk+hjp0d8eX3r+LfF79fiquLy6+/ff5VfLz49bee+HB2eVYtwXk+a8sHT1k0kcUijZNMRLPbfBwMRbGlSSq8dJiblyAaV8i4anuV59nK7DXFoPrkkshslkRi6iWpPA9jL2t4asrfzrvy2WeD4rNKjVlu0Z7JLi+hLPHjZnd6efKfRbkXxd7Y8uXIm4WZmCZxPofJrabY+ungoNc7O9va8MYzwAEOcIADHOAABzjAAQ5wgPPXxBHp7Db/L7DwpfpQ+N5cESXSBw1oQAMa0IAGNKABDWhAAxrQ6Gnui1uz/otmEM4kcIADHOAABzjAAQ5wgAMc4ABnHZyn9wY66r2BVzPqvYEdp/gL28nJ7u7hIUhBClKQghSkIAUpSEEKUpCCFKQgfRukbkHqZRRpuyDtdFz3YA+kIAUpSEEKUpCCFKQgBSlIQQpSkL4N0o4iPU8CgtQ9LEgdZ3+/0wEpSEEKUpCCFKQgBSlIQQpSkIIUpG+DdFeRfp3MKNKDgvQwP7rvQQpSkIIUpCAFKUhBClKQghSkIAXp2yDtKtJ/SZ8i3S9IT097vf19kIIUpCAFKUhBClKQghSkIAUpSEH6Nkj3it9MzCRFuleQ9np7eyAFKUhBClKQghSkIAUpSEEKUpCC9K2Q7ivSTzG1s6DbLUgPDly32wUpSEEKUpCCFKQgBSlIQQpSkIIUpLWRrlD8xLtvlCZ7sLMgC+XVxJtKO5MPWWPrQzxL0nKM+Z/PPA1uZZQGcRTKtMhQkmJnR5z4vvBEkUncB9lEpPGtFH6n5Mz0bmx706mM/IaltK3tkhNWh+1lWdKwHqym2GsbnjTPT3Krn5Rm81Au8FpeNJzESX6+FcqRAe0yxyiOsta9DMaTTOUYxKFfPceib66mrU+zMOv3wnyM9t3+l9jvO/1vn/N/zj9e9h1xNU9bHXEeJq385+GkdSo+fAmHt1kripO8X759Fp/Peu/V1zJ5Kzriy9U3cTEcqu9ubet6+t1OOkyCafYP8jvvdvzg7vUweQ6dLM8lAv/YGqoy6OUt5wWRTPqOs2eJoj2PLT9Ip6E3PwqiMI+1BmE8/PGLRQPmWRfXILL5ND9fNenOjXfnLT7VnqmOOy9RQ1YcCz+4nYbSjuT91d24Yf30CmRT7LbbxT+lNajy+l7m5Ymv/7BCbyBD68jy5cjLu1pMk3gUhNJqLiL9B+vIsdtN684LZ3L581BNVfk5+ezT652dWY/NSnlcpjwdpjy7THm6THn2mPLsM+U5YMpzyJTHaXMl4hrRDteQdrjGtMM1qB2uUe1wDWuHa1w7XAPb4RrZLtfIdtnmaq6R7XKNbNdoZIt0dnv74t3VlVa0RPoGacg2MktDtpBZGrJ9zNKQdW+Whqx6szRkzZulISveLA1Z72Zp6IXMMA/TOKaXMcM8TCOZXsQM8zCNZXoJM8zDNJrpBcwwD9N4ppcvwzxc8zLTeKbXLsM81cfzfRBl5svWQH1UPQ/ZPIZ5yOYxzEM2j2EestwN85DlbpiHLHfDPGS5G+Yhy90wD71+mSbiGtH0CmaaiGtM02uYaSKuUU2vYqaJuMY1vY6ZJuIa2fRKZpqIba7mGtn0YmaaqPrIfvpjRunLhqllrv3iP3qLtxEzSLibl+hsXmJ38xLdzUvsbV5if/MSB5uXONy8xIuVfVMaNdS3U0OBOzVUuFNDiTs11LhTQ5E7NVS5U0OZOzXUuVtDnbt1rOM11LlbQ52769V56Tsdq9mqxUsfGSTo3mCToDuDTYLuCzYJesplk6BnXDYJesJlk6DnWzYJerplk9DYKj6NGupbY6v4NGqocI2t4tOoocY1topPo4Yq19gqPo0a6lxjq/g06ljHa6hzja3i01ivzktfnVXNVi3ercUgQfcGmwTdGWwSdF+wSdBTLpsEPeOySdATLpsEPd+ySdDTLZuE5oZAPg36jio+DfpmKz4N+j4sPg36Fi0+Dfq+RD4N+pZFPg36bkY+DfpGRz6NGupcc3skn0YNda65qZJPo4aVXGOrdBqlbyipZqsWrzBhkKBtFZsE3RlsEnRfsEnQtopNgrZVbBK0rWKToG0VmwQ93bJJaGwVnwY93fJp0NMtnwZtq/g0aFvFp0HbKj4N2lbxadC2ik+DtlV8GjXUucZW8WnUUOcaW8WnUcNKrrFVOo3SjeCr2arFTvEMErStYpOgO4NNgu4LNgnaVrFJ0LaKTYK2VWwStK1ik6CnWzYJja3i06CnWz4Nerrl06BtFZ8Gbav4NGhbxadB2yo+DdpW8WnQtopPo4Y619gqPo0a6lxjq/g0aljJNbZKp1G63241W7XYkJdBgrZVbBJ0Z7BJ0H3BJkHbKjYJ2laxSdC2ik2CtlVsEvR0yyahsVV8GvR0y6dBT7d8GrSt4tOgbRWfBm2r+DRoW8WnQdsqPg3aVvFp1FDnGlvFp1FDnWtsFZ9GDSu5xlbpNEq3Naxmqxb7HjJI0LaKTYLuDDYJui/YJGhbxSZB2yo2CdpWsUnQtopNgp5u2SS0m61xaeh2q+LS0G1kxaWh2+OKS0O3/RWXhm7PNy4N3XZwXBq6neK4NHSbyHFp1FDn2q3nuDRqqHPthnVcGjWs5BpbtdL4XmWH1+WOzuJYRPJ+tYNssXFsI70bN4sdYEu3il1tC53K7H08i/y00W03heN0m6KjfnK71babfcgxnna79v2el8lxnMxPHoJ0sa3y0/VX2Hs6T3CR+DK5nKldjiufqDjmLzk+SS+dJXKBoTZqXrb7hvf9RhhhhBFGGGGEEUYYYYQRRhhhhBFGGGGEEUYYYYQRRhhhhBFGGGGEEUYYYYQRRhhhhBFGGGGEEUYYYYQRRhhhhBFGGGGEEUb4LxWe2/GdTJLAl5889WCtY7f/x+dV1aOx6ctHY69kEsh0+Xit1Vw9QDwN48wOg0iWPiKbvvacbvmTtaldvHp+GodeFsRRDmWlmZy2BnIUJ9Kq9uTzRzmWkf/yghafNfbaTdFRTy631YPM6h8rlKNMgZWkXqW1+2OZnUWZap9cYjSLhgVpY1v8UZJiRSifzr4ufZZbHcFINLJJkNpp0SvVhNTx7CQ7b78zbzhp/AfYNNsKXz06nrMv8/ancRqohKf5x1WuZnWoNK9QJfG9GdIKK4h8qeqh5TQNz14dN+ueOApkqMZbY9mmizoZJ/FsKn3x88/ib8vPH+z+xEuXz7+rAtt+Hp2/Gs0bxPbG43OlYYcyGmcT8U644p/COglDSxy9/EYaBkPZaDnb1+3v26X19qcriRPRuMkvpf2LuMlllkN1qas++3s+45h3kDrUMF7mu775bv+Qc3F8fLxovPUyFlmX3X5jeqmrY5BI78c6Jz8anmP6fdVey6s7VsNaDYblSCk2crD7XpoG40j6PbVFRHpdtOT39Zpy1dHTWTpprNsXeZceLfpz/UoKw6MqV2mrb66rkmZJ/ENW01l8d12leOoNg2xeTWr55bWvqpBYSa2bZTWRvJxW1ikP48lHHatyfjnxiJZwTLOZlFt11sdmsapW+v5jmadQx86O+PL7V/Hvi98vxdXF5dffPv8qPl78+ltPfDi7PKuW4DyfteWDpyyayGKRxkkmotltPg6GotjSJBVeOszNSxCNK2Rctb3K82xl9ppiUH1ySWQ2SyIx9ZJUnoexlzU8NeVv51357LNB8Vmlxiy3aM9kl5dQlvhxszu9PPnPotyLYm9s+XLkzcJMTJM4n8PkVlNs/XRw0OudnW1teOMZ4AAHOMABDnCAAxzgAAc4wPlr4oh0dpv/F1j4Un0ofG+uiBLpgwY0oAENaEADGtCABjSgAQ1o9DT3xa1Z/0UzCGcSOMABDnCAAxzgAAc4wAEOcICzDs7TewMd9d7Aqxn13sCOU/yF7eRkd/fwEKQgBSlIQQpSkIIUpCAFKUhBClKQvg1StyD1Moq0XZB2Oq57sAdSkIIUpCAFKUhBClKQghSkIAUpSN8GaUeRnicBQeoeFqSOs7/f6YAUpCAFKUhBClKQghSkIAUpSEEK0rdBuqtIv05mFOlBQXqYH933IAUpSEEKUpCCFKQgBSlIQQpSkIL0bZB2Fem/pE+R7hekp6e93v4+SEEKUpCCFKQgBSlIQQpSkIIUpCB9G6R7xW8mZpIi3StIe729PZCCFKQgBSlIQQpSkIIUpCAFKUhB+lZI9xXpp5jaWdDtFqQHB67b7YIUpCAFKUhBClKQghSkIAUpSEEK0tpIVyh+4t03SpM92FmQhfJq4k2lncmHrLH1IZ4laTnG/M9nnga3MkqDOAplWmQoSbGzI058X3iiyCTug2wi0vhWCr9TcmZ6N7a96VRGfsNS2tZ2yQmrw/ayLGlYD1ZT7LUNT5rnJ7nVT0qzeSgXeC0vGk7iJD/fCuXIgHaZYxRHWeteBuNJpnIM4tCvnmPRN1fT1qdZmPV7YT5G+27/S+zn/3773Hf65x8v+464mqetjjgP/7+98+1t28i6+PvnU8yyQC2jkixK/t+4C0exmwJJHNgpFhsjEChxJNGmSIGkbAuFv/tyKMprNb4kR7pk130OX6SpLnnOjzNzZ24rchQ04r8Pxo134v1ndzCJGp4fxP3y9ZP4dNZ9q06L5ER0xOerr+JiMFDnbm1n9fSbnXAQONPoF/KcNzu2c/dymLyGFou1hGOfGAOVBt245SzHk0HPNA8MkbTniWE74dS15seO58axRt/1B7c/GzRgrLq4BxHNp/H1qkl3bqw7a/Fp5pXquLMCNWTFibCdydSVTU/eX92NasYPL0DWxW6rlfyRm4NK17YiKxa+/sNwrb50jWPDlkMr7moxDfyh40qjvoj0Hoxjs9mqG3eWO5Pp3wdqqoqviWefbvfszHisF9JpM+l0mHR2mXT2mHT2mXQOmHQOmXSOmHTMFpcQ14g2uYa0yTWmTa5BbXKNapNrWJtc49rkGtgm18huc43sNttczTWy21wju601skU4m0xWfru60IoWSFtDhmwjPRmyhfRkyPbRkyHzXk+GzHo9GTLn9WTIjNeTIfNdT4ZeyDR1mMYxvYxp6jCNZHoR09RhGsv0EqapwzSa6QVMU4dpPNPLl6YO17zMNJ7ptUtTp/h4vne8SH/Z6quPiuuQzaOpQzaPpg7ZPJo6ZLpr6pDprqlDprumDpnumjpkumvq0OuXrhDXiKZXMF0hrjFNr2G6Qlyjml7FdIW4xjW9jukKcY1seiXTFWKbq7lGNr2Y6QoVH9lPX2bk/tgwtcy1Vv5Db/FrxAwW7fItOuVb7JZvsVe+xX75FgflWxyWb3FUvsXKyl6WRwX5bVaQ4GYFGW5WkOJmBTluVpDkZgVZblaQ5mYFed6uIM/bVazjFeR5u4I8b6+X57m/6VisrFr86CODBd0bbBZ0Z7BZ0H3BZkFPuWwW9IzLZkFPuGwW9HzLZkFPt2wWGWUVn0cF+Z1RVvF5VJDhGWUVn0cFOZ5RVvF5VJDlGWUVn0cFeZ5RVvF5VLGOV5DnGWUVn8d6eZ7701nFyqrFb2sxWNC9wWZBdwabBd0XbBb0lMtmQc+4bBb0hMtmQc+3bBb0dMtmkfFAIJ8H/UQVnwf9sBWfB/0cFp8H/YgWnwf9XCKfB/3IIp8H/TQjnwf9oCOfRwV5nvF4JJ9HBXme8VAln0cFK3lGWZXlkfsLJcXKqsVPmDBY0GUVmwXdGWwWdF+wWdBlFZsFXVaxWdBlFZsFXVaxWdDTLZtFRlnF50FPt3we9HTL50GXVXwedFnF50GXVXwedFnF50GXVXwedFnF51FBnmeUVXweFeR5RlnF51HBSp5RVmV55G4EX6ysWuwUz2BBl1VsFnRnsFnQfcFmQZdVbBZ0WcVmQZdVbBZ0WcVmQU+3bBYZZRWfBz3d8nnQ0y2fB11W8XnQZRWfB11W8XnQZRWfB11W8XnQZRWfRwV5nlFW8XlUkOcZZRWfRwUreUZZleWRu99usbJqsSEvgwVdVrFZ0J3BZkH3BZsFXVaxWdBlFZsFXVaxWdBlFZsFPd2yWWSUVXwe9HTL50FPt3wedFnF50GXVXwedFnF50GXVXwedFnF50GXVXweFeR5RlnF51FBnmeUVXweFazkGWVVlkfutobFyqrFvocMFnRZxWZBdwabBd0XbBZ0WcVmQZdVbBZ0WcVmQZdVbBb0dMtmkbnZGpdH1m5VXB5ZG1lxeWTtccXlkbX9FZdH1p5vXB5Z28FxeWTtFMflkbWJHJdHBXmeufUcl0cFeZ65YR2XRwUreUZZtfT4VmSH13RHZ3EiPHm/3EE22Ti2Ft6N6skOsLlbxS63hQ5l9NafeXZY22vVhWnu1UVH/a29V2y72YcY42m3a9vuWpEc+cH89MEJF9sqP91/gb2nY4GLwJbB5Uztclz4QsUxX+X4KK1wFsgFhtqoOW33kvf9RhhhhBFGGGGEEUYYYYQRRhhhhBFGGGGEEUYYYYQRRhhhhBFGGGGEEUYYYYQRRhhhhBFGGGGEEUYYYYQRRhhhhBFGGGGEEUb4bxWeN/07GQSOLT9a6sVas9na8H1V9WpsuPpq7JUMHBmmr9ca9eULxFPXj5qu48ncV2TDl97TzX+zNmwmPz0/9V0rcnwvhjLCSE4bfTn0A2kUe/P5gxxJz169ocVntf1WXXTUm8st9SKz+sNw5TBSYDnSS9lmbySjMy9S7RNbDGfeICGtbYs/ciSWhPLp6uvcd7nV4QxFLRo7YTNMeqWYkTqeXdSM2+/MGoxr/wXWVVviq1fHY/ZUtzf1Q0cJvos/LnI3y0PJvEAV+Pd6SEssx7OlyoeGWde8enncrHvh0JGuGm+1tE0XeTIK/NlU2uLHH8U/0s8fmr2xFabvv6sE234enb8YjRukaY1G58qj6UpvFI3FG9EW/xTGqesa4nj1jNB1BrLWMLevW9+2c/PtuzvxA1G7iW+l9bO4iW3SoZr6qs9+imcc/Q5ShxrGqd71zbfmrZyLk5OTReOtp5iopt1+o3ury6MfSOt2nYsfNa/RPV+1V3p3J2pYq8GQjpRkI4dmzwpDZ+RJu6u2iAivk5b8tl5TLjt6OgvHtXX7Iu7S40V/rp9Jrntc5C6b6sx1XcIo8G9lMZ/Fues6+VNr4ETzYlbpyWvfVWKxtFpXZTmRrE4r66SH9uSjjmU6r048oiFMXTWddCvO+lhPVtVC5z/m1RTq2NkRn3//Iv598fuluLq4/PLbp1/Fh4tff+uK92eXZ8UEzuNZWz5YqkQTkS9CP4iEN5vE42Agki1NQmGFg7h4cbxRAcVl2yudZyuzVRf94pNLIKNZ4ImpFYTy3PWtqGapKX877spnn/WTzwo1Zn6J9sw2vYU84cdyd3p5qj+TdE+SvbZly6E1cyMxDfx4DpNbdbH1w+Fht3t2tlXyxjPAAQ5wgAMc4AAHOMABDnCA8/fEEeFsEv8nsLCl+lDY1lwRBdIGDWhAAxrQgAY0oAENaEADGtBk09wnj2b9iabvziRwgAMc4AAHOMABDnCAAxzgAGcdnKffDTTV7wZezajfDeyYyTdsp6e7u0dHIAUpSEEKUpCCFKQgBSlIQQpSkIL0dZC2E1IrokhbCWmn024f7oMUpCAFKUhBClKQghSkIAUpSEEK0tdB2lGk54FDkLaPElLTPDjodEAKUpCCFKQgBSlIQQpSkIIUpCAF6esg3VWkX8YzivQwIT2Kj723IAUpSEEKUpCCFKQgBSlIQQpSkIL0dZDuKdJ/SZsiPUhI373rdg8OQApSkIIUpCAFKUhBClKQghSkIAXp6yDdT/7PxExSpPsJabe7vw9SkIIUpCAFKUhBClKQghSkIAUpSF8L6YEi/ehTOwu29xLSw8N2e28PpCAFKUhBClKQghSkIAUpSEEKUpBWRrpEsQPrvpYr9tCMnMiVV2NrKpuRfIhqW+/9WRDmY8y/v/KdM5Fe6PieK8NEIUdiZ0ec2rawRKIk7p1oLEJ/IoXdybkyvBs1relUenbNUN7Gds4Fy6NpRVFQMx6MuthvaV40jy9qF78ojOauXOA1LG8w9oP4esOVQw3aVGPoe1HjXjqjcaQ0+r5rF9dY9M3VtPFx5ka9rhuP0V6799m3e53e1089s3f+4bJniqt52OiIczdoxH8fjBvvxPvP7mASNTw/iPvl6yfx6az7Vp0WyYnoiM9XX8XFYKDO3drO6uk3O+EgcKbRL+Q5b3Zs5+7lMHkNLRZrCcc+MQYqDbpxy1mOJ4OeaR4aImnPE8N2wqlrzY8dz41jjb7rD25/NmjAWHVxDyKaT+PrVZPu3Fh31uLTzCvVcWcFasiKE2E7k6krm568v7ob1YwfXoCsi91WK/kjNweVrm1FVix8/YfhWn3pGseGLYdW3NViGvhDx5VGfRHpPRjHZrNVN+4sdybTvw/UVBVfE88+3e7ZmfFYL6TTZtLpMOnsMunsMensM+kcMOkcMukcMemYLS4hrhFtcg1pk2tMm1yD2uQa1SbXsDa5xrXJNbBNrpHd5hrZbba5mmtkt7lGdltrZItwNpms/HZ1oRUtkLaGDNlGejJkC+nJkO2jJ0PmvZ4MmfV6MmTO68mQGa8nQ+a7ngy9kGnqMI1jehnT1GEayfQipqnDNJbpJUxTh2k00wuYpg7TeKaXL00drnmZaTzTa5emTvHxfO94kf6y1VcfFdchm0dTh2weTR2yeTR1yHTX1CHTXVOHTHdNHTLdNXXIdNfUodcvXSGuEU2vYLpCXGOaXsN0hbhGNb2K6QpxjWt6HdMV4hrZ9EqmK8Q2V3ONbHox0xUqPrKfvszI/bFhaplrrfyH3uLXiBks2uVbdMq32C3fYq98i/3yLQ7Ktzgs3+KofIuVlb0sjwry26wgwc0KMtysIMXNCnLcrCDJzQqy3Kwgzc0K8rxdQZ63q1jHK8jzdgV53l4vz3N/07FYWbX40UcGC7o32CzozmCzoPuCzYKectks6BmXzYKecNks6PmWzYKebtksMsoqPo8K8jujrOLzqCDDM8oqPo8KcjyjrOLzqCDLM8oqPo8K8jyjrOLzqGIdryDPM8oqPo/18jz3p7OKlVWL39ZisKB7g82C7gw2C7ov2CzoKZfNgp5x2SzoCZfNgp5v2SzoZ6PYLDIeCOTzoJ+o4vOgH7bi86Cfw+LzoB/R4vOgn0vk86AfWeTzoJ9m5POgH3Tk86ggzzPKKj6PKtbxChbyjLKKz2O9pTz3F0qKlVWLnzBhsKB7g82C7gw2C7ov2CzosorNgi6r2CzosorNgi6r2Czo6ZbNIqOs4vOgyyo+D7qs4vOgyyo+D7qs4vOgyyo+D7qs4vOgyyo+D7qs4vOoIM8zyio+jyrW8QoW8oyyis9jvaU8dyP4YmXVYqd4Bgu6N9gs6M5gs6D7gs2CLqvYLOiyis2CLqvYLOiyis2Cnm7ZLDLKKj4Puqzi86DLKj4Puqzi86DLKj4Puqzi86DLKj4Puqzi86DLKj6PCvI8o6zi86hiHa9gIc8oq/g81lvKc/fbLVZWLTbkZbCge4PNgu4MNgu6L9gs6LKKzYIuq9gs6LKKzYIuq9gs6OmWzSKjrOLzoMsqPg+6rOLzoMsqPg+6rOLzoMsqPg+6rOLzoMsqPg+6rOLzqCDPM8oqPo8q1vEKFvKMsorPY72lPHdbw2Jl1WLfQwYLujfYLOjOYLOg+4LNgi6r2CzosorNgi6r2CzosorNImvfKSaLzM3WuDyydqvi8sjayIrLI2uPKy6PrO2vuDyy9nzj8sjaDo7LI2unOC6PrE3kuDwqyPOMsorPo4p1vIKFPKOs4vPIX8q/FdnhNd3RWZwIT94vd5BNNo6thXejerIDbO5WscttoUMZvfVnnh3W9lp1YZp7ddFRf2vvFdtu9iHGeNrt2ra7ViRHfjA/fXDCxbbKT/dfYO/pWOAisGVwOVO7HBe+UHHMVzk+SiucBXKBoTZqTtu95H2/EUYYYYQRRhhhhBFGGGGEEUYYYYQRRhhhhBFGGGGEEUYYYYQRRhhhhBFGGGGEEUYYYYQRRhhhhBFGGGGEEUYYYYQRRhhhhBH+W4XnTf9OBoFjy4+WerHWbLY2fF9VvRobrr4aeyUDR4bp67VGffkC8dT1o6breDL3Fdnwpfd089+sDZvJT89PfdeKHN+LoYwwktNGXw79QBrF3nz+IEfSs1dvaPFZbb9VFx315nJLvcis/jBcOYwUWI70UrbZG8nozItU+8QWw5k3SEhr2+KPHIkloXy6+jr3XW51OENRi8ZO2AyTXilmpI5nFzXj9juzBuPaf4F11Zb46tXxmD3V7U390FGC7+KPi9zN8lAyL1AF/r0e0hLL8Wyp8qFh1jWvXh436144dKSrxlstbdNFnowCfzaVtvjxR/GP9POHZm9shen77yrBtp9H5y9G4wZpWqPRufJoutIbRWPxRrTFP4Vx6rqGOF49I3Sdgaw1zO3r1rft3Hz77k78QNRu4ltp/SxuYpt0qKa+6rOf4hlHv4PUoYZxqnd98615K+fi5ORk0XjrKSaqabff6N7q8ugH0rpd5+JHzWt0z1ftld7diRrWajCkIyXZyKHZs8LQGXnS7qotIsLrpCW/rdeUy46ezsJxbd2+iLv0eNGf62eS6x4XucumOnNdlzAK/FtZzGdx7rpO/tQaONG8mFV68tp3lVgsrdZVWU4kq9PKOumhPfmoY5nOqxOPaAhTV00n3YqzPtaTVbXQ+Y95NYU6dnbE59+/iH9f/H4pri4uv/z26Vfx4eLX37ri/dnlWTGB83jWlg+WKtFE5IvQDyLhzSbxOBiIZEuTUFjhIC5eHG9UQHHZ9krn2cps1UW/+OQSyGgWeGJqBaE8d30rqllqyt+Ou/LZZ/3ks0KNmV+iPbNNbyFP+LHcnV6e6s8k3ZNkr23ZcmjN3EhMAz+ew+RWXWz9cHjY7Z6dbZW88QxwgAMc4AAHOMABDnCAAxzg/D1xRDibxP8JLGypPhS2NVdEgbRBAxrQgAY0oAENaEADGtCABjTZNPfJo1l/oum7Mwkc4AAHOMABDnCAAxzgAAc4wFkH5+l3A031u4FXM+p3Aztm8g3b6enu7tERSEEKUpCCFKQgBSlIQQpSkIIUpCB9HaTthNSKKNJWQtrptNuH+yAFKUhBClKQghSkIAUpSEEKUpCC9HWQdhTpeeAQpO2jhNQ0Dw46HZCCFKQgBSlIQQpSkIIUpCAFKUhB+jpIdxXpl/GMIj1MSI/iY+8tSEEKUpCCFKQgBSlIQQpSkIIUpCB9HaR7ivRf0qZIDxLSd++63YMDkIIUpCAFKUhBClKQghSkIAUpSEH6Okj3k/8zMZMU6X5C2u3u74MUpCAFKUhBClKQghSkIAUpSEEK0tdCeqBIP/rUzoLtvYT08LDd3tsDKUhBClKQghSkIAUpSEEKUpCCFKSVkS5R7MC6r+WKPTQjJ3Ll1diaymYkH6La1nt/FoT5GPPvr3znTKQXOr7nyjBRyJHY2RGnti0skSiJeycai9CfSGF3cq4M70ZNazqVnl0zlLexnXPB8mhaURTUjAejLvZbmhfN44vaxS8Ko7krF3gNyxuM/SC+3nDlUIM21Rj6XtS4l85oHCmNvu/axTUWfXM1bVwMh85Ahr2vn3pm7/zDZc8UV/Ow0RHnbtCI/z4YN07F+8/uYBI1pBVG4usn8ems+1adFcmJ6IjPV1/FxWCgTt3azurdNzvhIHCm0S/kOW92bOfu5TB5DS0WawnHPjEGauh349ayHE8GPdM8MkTShieG7YRT15ofO54bxxp91x/c/mzQgLHq4h5ENJ/G16tm3Lmx7qzFp5lXquPOCtQwFSfCdiZTVzY9eX91N6oZP7wAWRe7rVbyR27eKV3biqxY+PoPw7X60jWODVsOrZkbiWngDx1XGvVFpPdgHJvNVt24s9yZNI73j5pHz47Do7oxUJNVrBDPP93u2ZnxWC+k2i5FtVOK6m4pqnulqO6XonpQiuphKapHpaiarXJky8kus5z0MsvJL7OcBDPLyTCznBQzy8kxs5wkM8vJsnY5WdYuaQ0rJ8va5WRZe4MsE+FsMln5/e81KoRA2hqiBdtWT7Rgy+qJFmxXPdGCc5eeaMGZS0+04LylJ1pw1tITLThn6YkWLQw0VUvJqaJlgaZqKVlVtCjQVC0lr4qWBJqqpWRW0YJAU7WU3CpaDmiqlrNelZJbRWsBTdV1c+ve8aJNy4C+OqG4asFm1VQt2KyaqgWbVVO14JSlqVpwytJULThlaaoWnLI0VQtOWZqqResBXdlysqtoRaArW05+Fa0JdGXLybCiVYGubDk5VrQu0JUtJ8uKVga6siWtYeVkWdHiQFdWK8u+FfnCIf1SUZwIT94vv9BIvseohXejevKFRO43F8tvJkMZvfVnnh3W9lp1YZp7ddFRf2vvFfv24yHGePrC1ba7ViRHfjA/fXDCxTd7T01R4OvPWOAisGVwOVNftBW+UHHMVzk+SiucBXKBob4rTLtg0y90ky+SVq2uZODIMMWNndIOmbp+1FTfbuVahi/ddz5p2EzG3dR3rcjxvRjKCCM5bfTl0A+kUWwkfZAj6dmrN7T4rLYfj4KOGgnqyzBT/ZF+X5r7VfJSttkbyejMi1T7xBbDmTdISGvb4o8CX5gqQvl09XVubqjDGYpaNHbCeFyr64oZqePZRc24/c6swbj2X2BdtSV++t1gqtub+qGjBN/FHxe5m+WhZF6gCvx7PaQlluPZUiVuw6xrXr08bta9cOhIV423WtqmizwZBf5sKm3x44/iH+nnD83e2ArT+UQl2Pbz6PzFaNwgTWs0OlceTVd6o2gs3oi2+KcwTl3XEMerZ4SuM5C1hrl93fq2nZtv392JH4jaTXwrrZ/FTWyTDtXUV33204kw9TtIHWoYp3rXN9+atzKe3k5OFo23nmKimnb7je6tLo9+IK3bdS5+1LxG93zVXundnahhrQZDOlKShbHZWzwMJO3kcaDwOmnJb+s15bKjp7NwXFu3L+IuPV705/qZ5LrHRe6yqc5c1yWMAv9WFvNZnLuukz+1Bk40L2aVnrz2XSUWS6t1VZYTyeq0sk56aE8+6lim8+rEIxrC1FXTSbfirI/1ZFUtdP5jXk2hjp0d8fn3L+LfF79fiquLyy+/ffpVfLj49beueH92eVZM4DyeteWDpUo0Efki9ONC2ptN4nEwEEmJGAorHMTFi+ONCigu217pPFuZrbroF59cAhnNAk9MrSCU565vRTVLTfnbcVc++6yffFaoMfNLtGe26S3kCT/+BQ9t/ukL2PTJTPWF6l/yDClwgAMc4AAHOMABDnCAAxzgvHqc7x9wUUSBtEEDGtCABjSgAQ1oQAMa0IAGNNk03z0SqGjUI37AAQ5wgAMc4AAHOMABDnCAA5y/cKvEL3IylYEVzQIpaufb2Czxf2qzxH9ZasS9l8k/Tid9R3qRUF2mdj6U9ixu/4Y4aJ2/jk0Q261XsAliDFnVJojJq6frbsLEpNNh0tll0tlj0tln0jlg0jlk0jli0lnZXWAjIa4RbXINaZNrTJtcg9rkGtUm17A2uca1yTWwTa6R3eYa2W22uZprZLe5RnZba2QX37RvRWr9bfo2kCFbaP2t+DaQIfN+/e32NpAhc379LfU2kCHzfYNt8zbRYRrH9DK2wWZ4m+gwDWV6Ddtgi7tNdJhGM72AbbBx3SbzINN4plevDbaj20SHaTzTS9f6m8ytyGywrdwmOmTzbLB13CY6ZLpvsD3cJjpkum+wBdwmOmS6b7LN20ZCXCOaXsE22bxtIyGuQU0vYptsybaRENe4ptexTTZa22hm5BrZ9FK2yfZpGwlxjWx6NcOmaK9iUzSEEUYYYYQRRhhhhBFGGGGEEUYYYYT/l8Lzpn8ng8Cx5UdL/Y8qs9nCpvjP7gSb4j8d2BRf68Cm+NgUX+PApvh/PrAp/p8PbIqveWBTfGyK/+KBTfGBAxzgAAc4wAEOcIADHOAABzivYUtJ0IAGNKABDWhAAxrQgAY0oHk9NP9vtrIEDnCAAxzgAAc4wAEOcIADnPX9/oJN8d85E+mFju+5MgyxJf7/1pb4fnArzoZDZ+BIbzB/2gi/2i3w07P/FHn+78u/L/75pJ7+5ekffd+eq3+Oo4n7y//9B0D/K4s="
               },
               {
                  "name" : "annual_peak_electric_demand",
                  "units" : "kW",
                  "value" : 242.89829
               },
               {
                  "name" : "first_year_capital_cost",
                  "units" : "$",
                  "value" : 0
               },
               {
                  "name" : "annual_utility_cost",
                  "units" : "$",
                  "value" : 0
               },
               {
                  "name" : "total_lifecycle_cost",
                  "units" : "$",
                  "value" : 0
               }
            ],
            "step_warnings" : []
         }
      }
   ],
   "updated_at" : "20170710T184046Z",
   "weather_file" : "USA_CO_Denver.Intl.AP.725650_TMY3.epw"
}
