{
   "completed_at" : "20170710T183832Z",
   "completed_status" : "Success",
   "created_at" : "2017-07-10 18:31:18 +0000",
   "current_step" : 5,
   "description" : "",
   "eplusout_err" : "Program Version,EnergyPlus, Version 8.7.0-78a111df4a, YMD=2017.07.10 18:33,IDD_Version 8.7.0\n   ************* IDF Context for following error/warning message:\n   ************* Note -- lines truncated at 300 characters, if necessary...\n   *************      5 Building,\n   ************* indicated Name=NECB 2011-LargeHotel-NECB HDD Method-CAN_MB_Brandon.711400_CWEC.epw created: 2017-07-10 18:31:24 +0000\n   ************* Only last 1 lines before error line shown.....\n   *************      6   NECB 2011-LargeHotel-NECB HDD Method-CAN_MB_Brandon.711400_CWEC.epw created: 2017-07-10 18:31:24 +0000, !- Name\n   ** Warning ** IP: IDF line~6 Alpha Argument length exceeds maximum, will be truncated=  NECB 2011-LargeHotel-NECB HDD Method-CAN_MB_Brandon.711400_CWEC.epw created: 2017-07-10 18:31:24 +000\n   **   ~~~   ** Will be processed as Alpha=NECB 2011-LARGEHOTEL-NECB HDD METHOD-CAN_MB_BRANDON.711400_CWEC.EPW CREATED: 2017-07-10 18:31:24 +0000\n   ************* Beginning Zone Sizing Calculations\n   ** Warning ** ProcessScheduleInput: Schedule:Day:Interval=\"ECONOMIZER MAX OA FRACTION 100 PCT DEFAULT\", Blank Schedule Type Limits Name input -- will not be validated.\n   ** Warning ** ProcessScheduleInput: Schedule:Day:Interval=\"SCHEDULE DAY 1\", Blank Schedule Type Limits Name input -- will not be validated.\n   ** Warning ** ProcessScheduleInput: Schedule:Day:Interval=\"SCHEDULE DAY 10\", Blank Schedule Type Limits Name input -- will not be validated.\n   ** Warning ** ProcessScheduleInput: Schedule:Day:Interval=\"SCHEDULE DAY 11\", Blank Schedule Type Limits Name input -- will not be validated.\n   ** Warning ** ProcessScheduleInput: Schedule:Day:Interval=\"SCHEDULE DAY 12\", Blank Schedule Type Limits Name input -- will not be validated.\n   ** Warning ** ProcessScheduleInput: Schedule:Day:Interval=\"SCHEDULE DAY 13\", Blank Schedule Type Limits Name input -- will not be validated.\n   ** Warning ** ProcessScheduleInput: Schedule:Day:Interval=\"SCHEDULE DAY 14\", Blank Schedule Type Limits Name input -- will not be validated.\n   ** Warning ** ProcessScheduleInput: Schedule:Day:Interval=\"SCHEDULE DAY 15\", Blank Schedule Type Limits Name input -- will not be validated.\n   ** Warning ** ProcessScheduleInput: Schedule:Day:Interval=\"SCHEDULE DAY 16\", Blank Schedule Type Limits Name input -- will not be validated.\n   ** Warning ** ProcessScheduleInput: Schedule:Day:Interval=\"SCHEDULE DAY 17\", Blank Schedule Type Limits Name input -- will not be validated.\n   ** Warning ** ProcessScheduleInput: Schedule:Day:Interval=\"SCHEDULE DAY 18\", Blank Schedule Type Limits Name input -- will not be validated.\n   ** Warning ** ProcessScheduleInput: Schedule:Day:Interval=\"SCHEDULE DAY 19\", Blank Schedule Type Limits Name input -- will not be validated.\n   ** Warning ** ProcessScheduleInput: Schedule:Day:Interval=\"SCHEDULE DAY 2\", Blank Schedule Type Limits Name input -- will not be validated.\n   ** Warning ** ProcessScheduleInput: Schedule:Day:Interval=\"SCHEDULE DAY 20\", Blank Schedule Type Limits Name input -- will not be validated.\n   ** Warning ** ProcessScheduleInput: Schedule:Day:Interval=\"SCHEDULE DAY 21\", Blank Schedule Type Limits Name input -- will not be validated.\n   ** Warning ** ProcessScheduleInput: Schedule:Day:Interval=\"SCHEDULE DAY 22\", Blank Schedule Type Limits Name input -- will not be validated.\n   ** Warning ** ProcessScheduleInput: Schedule:Day:Interval=\"SCHEDULE DAY 23\", Blank Schedule Type Limits Name input -- will not be validated.\n   ** Warning ** ProcessScheduleInput: Schedule:Day:Interval=\"SCHEDULE DAY 24\", Blank Schedule Type Limits Name input -- will not be validated.\n   ** Warning ** ProcessScheduleInput: Schedule:Day:Interval=\"SCHEDULE DAY 25\", Blank Schedule Type Limits Name input -- will not be validated.\n   ** Warning ** ProcessScheduleInput: Schedule:Day:Interval=\"SCHEDULE DAY 26\", Blank Schedule Type Limits Name input -- will not be validated.\n   ** Warning ** ProcessScheduleInput: Schedule:Day:Interval=\"SCHEDULE DAY 27\", Blank Schedule Type Limits Name input -- will not be validated.\n   ** Warning ** ProcessScheduleInput: Schedule:Day:Interval=\"SCHEDULE DAY 28\", Blank Schedule Type Limits Name input -- will not be validated.\n   ** Warning ** ProcessScheduleInput: Schedule:Day:Interval=\"SCHEDULE DAY 29\", Blank Schedule Type Limits Name input -- will not be validated.\n   ** Warning ** ProcessScheduleInput: Schedule:Day:Interval=\"SCHEDULE DAY 30\", Blank Schedule Type Limits Name input -- will not be validated.\n   ** Warning ** ProcessScheduleInput: Schedule:Day:Interval=\"SCHEDULE DAY 31\", Blank Schedule Type Limits Name input -- will not be validated.\n   ** Warning ** ProcessScheduleInput: Schedule:Day:Interval=\"SCHEDULE DAY 32\", Blank Schedule Type Limits Name input -- will not be validated.\n   ** Warning ** ProcessScheduleInput: Schedule:Day:Interval=\"SCHEDULE DAY 33\", Blank Schedule Type Limits Name input -- will not be validated.\n   ** Warning ** ProcessScheduleInput: Schedule:Day:Interval=\"SCHEDULE DAY 34\", Blank Schedule Type Limits Name input -- will not be validated.\n   ** Warning ** ProcessScheduleInput: Schedule:Day:Interval=\"SCHEDULE DAY 35\", Blank Schedule Type Limits Name input -- will not be validated.\n   ** Warning ** ProcessScheduleInput: Schedule:Day:Interval=\"SCHEDULE DAY 36\", Blank Schedule Type Limits Name input -- will not be validated.\n   ** Warning ** ProcessScheduleInput: Schedule:Day:Interval=\"SCHEDULE DAY 37\", Blank Schedule Type Limits Name input -- will not be validated.\n   ** Warning ** ProcessScheduleInput: Schedule:Day:Interval=\"SCHEDULE DAY 38\", Blank Schedule Type Limits Name input -- will not be validated.\n   ** Warning ** ProcessScheduleInput: Schedule:Day:Interval=\"SCHEDULE DAY 39\", Blank Schedule Type Limits Name input -- will not be validated.\n   ** Warning ** ProcessScheduleInput: Schedule:Day:Interval=\"SCHEDULE DAY 40\", Blank Schedule Type Limits Name input -- will not be validated.\n   ** Warning ** ProcessScheduleInput: Schedule:Day:Interval=\"SCHEDULE DAY 41\", Blank Schedule Type Limits Name input -- will not be validated.\n   ** Warning ** ProcessScheduleInput: Schedule:Day:Interval=\"SCHEDULE DAY 42\", Blank Schedule Type Limits Name input -- will not be validated.\n   ** Warning ** ProcessScheduleInput: Schedule:Day:Interval=\"SCHEDULE DAY 43\", Blank Schedule Type Limits Name input -- will not be validated.\n   ** Warning ** ProcessScheduleInput: Schedule:Day:Interval=\"SCHEDULE DAY 44\", Blank Schedule Type Limits Name input -- will not be validated.\n   ** Warning ** ProcessScheduleInput: Schedule:Day:Interval=\"SCHEDULE DAY 45\", Blank Schedule Type Limits Name input -- will not be validated.\n   ** Warning ** ProcessScheduleInput: Schedule:Day:Interval=\"SCHEDULE DAY 46\", Blank Schedule Type Limits Name input -- will not be validated.\n   ** Warning ** ProcessScheduleInput: Schedule:Day:Interval=\"SCHEDULE DAY 47\", Blank Schedule Type Limits Name input -- will not be validated.\n   ** Warning ** ProcessScheduleInput: Schedule:Day:Interval=\"SCHEDULE DAY 48\", Blank Schedule Type Limits Name input -- will not be validated.\n   ** Warning ** ProcessScheduleInput: Schedule:Day:Interval=\"SCHEDULE DAY 49\", Blank Schedule Type Limits Name input -- will not be validated.\n   ** Warning ** ProcessScheduleInput: Schedule:Day:Interval=\"SCHEDULE DAY 50\", Blank Schedule Type Limits Name input -- will not be validated.\n   ** Warning ** ProcessScheduleInput: Schedule:Day:Interval=\"SCHEDULE DAY 51\", Blank Schedule Type Limits Name input -- will not be validated.\n   ** Warning ** ProcessScheduleInput: Schedule:Day:Interval=\"SCHEDULE DAY 52\", Blank Schedule Type Limits Name input -- will not be validated.\n   ** Warning ** ProcessScheduleInput: Schedule:Day:Interval=\"SCHEDULE DAY 53\", Blank Schedule Type Limits Name input -- will not be validated.\n   ** Warning ** ProcessScheduleInput: Schedule:Day:Interval=\"SCHEDULE DAY 54\", Blank Schedule Type Limits Name input -- will not be validated.\n   ** Warning ** ProcessScheduleInput: Schedule:Day:Interval=\"SCHEDULE DAY 55\", Blank Schedule Type Limits Name input -- will not be validated.\n   ** Warning ** ProcessScheduleInput: Schedule:Day:Interval=\"SCHEDULE DAY 56\", Blank Schedule Type Limits Name input -- will not be validated.\n   ** Warning ** ProcessScheduleInput: Schedule:Day:Interval=\"SCHEDULE DAY 57\", Blank Schedule Type Limits Name input -- will not be validated.\n   ** Warning ** ProcessScheduleInput: Schedule:Day:Interval=\"SCHEDULE DAY 58\", Blank Schedule Type Limits Name input -- will not be validated.\n   ** Warning ** ProcessScheduleInput: Schedule:Day:Interval=\"SCHEDULE DAY 59\", Blank Schedule Type Limits Name input -- will not be validated.\n   ** Warning ** ProcessScheduleInput: Schedule:Day:Interval=\"SCHEDULE DAY 60\", Blank Schedule Type Limits Name input -- will not be validated.\n   ** Warning ** ProcessScheduleInput: Schedule:Day:Interval=\"SCHEDULE DAY 61\", Blank Schedule Type Limits Name input -- will not be validated.\n   ** Warning ** ProcessScheduleInput: Schedule:Day:Interval=\"SCHEDULE DAY 62\", Blank Schedule Type Limits Name input -- will not be validated.\n   ** Warning ** ProcessScheduleInput: Schedule:Day:Interval=\"SCHEDULE DAY 63\", Blank Schedule Type Limits Name input -- will not be validated.\n   ** Warning ** ProcessScheduleInput: Schedule:Day:Interval=\"SCHEDULE DAY 64\", Blank Schedule Type Limits Name input -- will not be validated.\n   ** Warning ** ProcessScheduleInput: Schedule:Day:Interval=\"SCHEDULE DAY 65\", Blank Schedule Type Limits Name input -- will not be validated.\n   ** Warning ** ProcessScheduleInput: Schedule:Day:Interval=\"SCHEDULE DAY 66\", Blank Schedule Type Limits Name input -- will not be validated.\n   ** Warning ** ProcessScheduleInput: Schedule:Day:Interval=\"SCHEDULE DAY 67\", Blank Schedule Type Limits Name input -- will not be validated.\n   ** Warning ** ProcessScheduleInput: Schedule:Day:Interval=\"SCHEDULE DAY 68\", Blank Schedule Type Limits Name input -- will not be validated.\n   ** Warning ** ProcessScheduleInput: Schedule:Day:Interval=\"SCHEDULE DAY 69\", Blank Schedule Type Limits Name input -- will not be validated.\n   ** Warning ** ProcessScheduleInput: Schedule:Day:Interval=\"SCHEDULE DAY 70\", Blank Schedule Type Limits Name input -- will not be validated.\n   ** Warning ** ProcessScheduleInput: Schedule:Day:Interval=\"SCHEDULE DAY 71\", Blank Schedule Type Limits Name input -- will not be validated.\n   ** Warning ** ProcessScheduleInput: Schedule:Day:Interval=\"SCHEDULE DAY 72\", Blank Schedule Type Limits Name input -- will not be validated.\n   ** Warning ** ProcessScheduleInput: Schedule:Day:Interval=\"SCHEDULE DAY 73\", Blank Schedule Type Limits Name input -- will not be validated.\n   ** Warning ** ProcessScheduleInput: Schedule:Day:Interval=\"SCHEDULE DAY 74\", Blank Schedule Type Limits Name input -- will not be validated.\n   ** Warning ** ProcessScheduleInput: Schedule:Day:Interval=\"SCHEDULE DAY 75\", Blank Schedule Type Limits Name input -- will not be validated.\n   ** Warning ** ProcessScheduleInput: Schedule:Day:Interval=\"SCHEDULE DAY 76\", Blank Schedule Type Limits Name input -- will not be validated.\n   ** Warning ** ProcessScheduleInput: Schedule:Day:Interval=\"SCHEDULE DAY 77\", Blank Schedule Type Limits Name input -- will not be validated.\n   ** Warning ** ProcessScheduleInput: Schedule:Day:Interval=\"SCHEDULE DAY 78\", Blank Schedule Type Limits Name input -- will not be validated.\n   ** Warning ** ProcessScheduleInput: Schedule:Day:Interval=\"SCHEDULE DAY 8\", Blank Schedule Type Limits Name input -- will not be validated.\n   ** Warning ** ProcessScheduleInput: Schedule:Day:Interval=\"SCHEDULE DAY 9\", Blank Schedule Type Limits Name input -- will not be validated.\n   ** Warning ** ProcessScheduleInput: Schedule:Year=\"ECONOMIZER MAX OA FRACTION 100 PCT\", Blank Schedule Type Limits Name input -- will not be validated.\n   ** Warning ** ProcessScheduleInput: Schedule:Year=\"SCHEDULE RULESET 10\", Blank Schedule Type Limits Name input -- will not be validated.\n   ** Warning ** ProcessScheduleInput: Schedule:Year=\"SCHEDULE RULESET 11\", Blank Schedule Type Limits Name input -- will not be validated.\n   ** Warning ** ProcessScheduleInput: Schedule:Year=\"SCHEDULE RULESET 12\", Blank Schedule Type Limits Name input -- will not be validated.\n   ** Warning ** ProcessScheduleInput: Schedule:Year=\"SCHEDULE RULESET 13\", Blank Schedule Type Limits Name input -- will not be validated.\n   ** Warning ** ProcessScheduleInput: Schedule:Year=\"SCHEDULE RULESET 14\", Blank Schedule Type Limits Name input -- will not be validated.\n   ** Warning ** ProcessScheduleInput: Schedule:Year=\"SCHEDULE RULESET 15\", Blank Schedule Type Limits Name input -- will not be validated.\n   ** Warning ** ProcessScheduleInput: Schedule:Year=\"SCHEDULE RULESET 16\", Blank Schedule Type Limits Name input -- will not be validated.\n   ** Warning ** ProcessScheduleInput: Schedule:Year=\"SCHEDULE RULESET 17\", Blank Schedule Type Limits Name input -- will not be validated.\n   ** Warning ** ProcessScheduleInput: Schedule:Year=\"SCHEDULE RULESET 18\", Blank Schedule Type Limits Name input -- will not be validated.\n   ** Warning ** ProcessScheduleInput: Schedule:Year=\"SCHEDULE RULESET 19\", Blank Schedule Type Limits Name input -- will not be validated.\n   ** Warning ** ProcessScheduleInput: Schedule:Year=\"SCHEDULE RULESET 20\", Blank Schedule Type Limits Name input -- will not be validated.\n   ** Warning ** ProcessScheduleInput: Schedule:Year=\"SCHEDULE RULESET 21\", Blank Schedule Type Limits Name input -- will not be validated.\n   ** Warning ** ProcessScheduleInput: Schedule:Year=\"SCHEDULE RULESET 22\", Blank Schedule Type Limits Name input -- will not be validated.\n   ** Warning ** ProcessScheduleInput: Schedule:Year=\"SCHEDULE RULESET 23\", Blank Schedule Type Limits Name input -- will not be validated.\n   ** Warning ** ProcessScheduleInput: Schedule:Year=\"SCHEDULE RULESET 24\", Blank Schedule Type Limits Name input -- will not be validated.\n   ** Warning ** ProcessScheduleInput: Schedule:Year=\"SCHEDULE RULESET 25\", Blank Schedule Type Limits Name input -- will not be validated.\n   ** Warning ** ProcessScheduleInput: Schedule:Year=\"SCHEDULE RULESET 26\", Blank Schedule Type Limits Name input -- will not be validated.\n   ** Warning ** ProcessScheduleInput: Schedule:Year=\"SCHEDULE RULESET 27\", Blank Schedule Type Limits Name input -- will not be validated.\n   ** Warning ** ProcessScheduleInput: Schedule:Year=\"SCHEDULE RULESET 28\", Blank Schedule Type Limits Name input -- will not be validated.\n   ** Warning ** ProcessScheduleInput: Schedule:Year=\"SCHEDULE RULESET 29\", Blank Schedule Type Limits Name input -- will not be validated.\n   ** Warning ** ProcessScheduleInput: Schedule:Year=\"SCHEDULE RULESET 3\", Blank Schedule Type Limits Name input -- will not be validated.\n   ** Warning ** ProcessScheduleInput: Schedule:Year=\"SCHEDULE RULESET 30\", Blank Schedule Type Limits Name input -- will not be validated.\n   ** Warning ** ProcessScheduleInput: Schedule:Year=\"SCHEDULE RULESET 31\", Blank Schedule Type Limits Name input -- will not be validated.\n   ** Warning ** ProcessScheduleInput: Schedule:Year=\"SCHEDULE RULESET 32\", Blank Schedule Type Limits Name input -- will not be validated.\n   ** Warning ** ProcessScheduleInput: Schedule:Year=\"SCHEDULE RULESET 33\", Blank Schedule Type Limits Name input -- will not be validated.\n   ** Warning ** ProcessScheduleInput: Schedule:Year=\"SCHEDULE RULESET 34\", Blank Schedule Type Limits Name input -- will not be validated.\n   ** Warning ** ProcessScheduleInput: Schedule:Year=\"SCHEDULE RULESET 35\", Blank Schedule Type Limits Name input -- will not be validated.\n   ** Warning ** ProcessScheduleInput: Schedule:Year=\"SCHEDULE RULESET 36\", Blank Schedule Type Limits Name input -- will not be validated.\n   ** Warning ** ProcessScheduleInput: Schedule:Year=\"SCHEDULE RULESET 37\", Blank Schedule Type Limits Name input -- will not be validated.\n   ** Warning ** ProcessScheduleInput: Schedule:Year=\"SCHEDULE RULESET 38\", Blank Schedule Type Limits Name input -- will not be validated.\n   ** Warning ** ProcessScheduleInput: Schedule:Year=\"SCHEDULE RULESET 39\", Blank Schedule Type Limits Name input -- will not be validated.\n   ** Warning ** ProcessScheduleInput: Schedule:Year=\"SCHEDULE RULESET 4\", Blank Schedule Type Limits Name input -- will not be validated.\n   ** Warning ** ProcessScheduleInput: Schedule:Year=\"SCHEDULE RULESET 40\", Blank Schedule Type Limits Name input -- will not be validated.\n   ** Warning ** ProcessScheduleInput: Schedule:Year=\"SCHEDULE RULESET 41\", Blank Schedule Type Limits Name input -- will not be validated.\n   ** Warning ** ProcessScheduleInput: Schedule:Year=\"SCHEDULE RULESET 42\", Blank Schedule Type Limits Name input -- will not be validated.\n   ** Warning ** ProcessScheduleInput: Schedule:Year=\"SCHEDULE RULESET 43\", Blank Schedule Type Limits Name input -- will not be validated.\n   ** Warning ** ProcessScheduleInput: Schedule:Year=\"SCHEDULE RULESET 44\", Blank Schedule Type Limits Name input -- will not be validated.\n   ** Warning ** ProcessScheduleInput: Schedule:Year=\"SCHEDULE RULESET 45\", Blank Schedule Type Limits Name input -- will not be validated.\n   ** Warning ** ProcessScheduleInput: Schedule:Year=\"SCHEDULE RULESET 46\", Blank Schedule Type Limits Name input -- will not be validated.\n   ** Warning ** ProcessScheduleInput: Schedule:Year=\"SCHEDULE RULESET 47\", Blank Schedule Type Limits Name input -- will not be validated.\n   ** Warning ** ProcessScheduleInput: Schedule:Year=\"SCHEDULE RULESET 48\", Blank Schedule Type Limits Name input -- will not be validated.\n   ** Warning ** ProcessScheduleInput: Schedule:Year=\"SCHEDULE RULESET 49\", Blank Schedule Type Limits Name input -- will not be validated.\n   ** Warning ** ProcessScheduleInput: Schedule:Year=\"SCHEDULE RULESET 5\", Blank Schedule Type Limits Name input -- will not be validated.\n   ** Warning ** ProcessScheduleInput: Schedule:Year=\"SCHEDULE RULESET 50\", Blank Schedule Type Limits Name input -- will not be validated.\n   ** Warning ** ProcessScheduleInput: Schedule:Year=\"SCHEDULE RULESET 51\", Blank Schedule Type Limits Name input -- will not be validated.\n   ** Warning ** ProcessScheduleInput: Schedule:Year=\"SCHEDULE RULESET 52\", Blank Schedule Type Limits Name input -- will not be validated.\n   ** Warning ** ProcessScheduleInput: Schedule:Year=\"SCHEDULE RULESET 53\", Blank Schedule Type Limits Name input -- will not be validated.\n   ** Warning ** ProcessScheduleInput: Schedule:Year=\"SCHEDULE RULESET 54\", Blank Schedule Type Limits Name input -- will not be validated.\n   ** Warning ** ProcessScheduleInput: Schedule:Year=\"SCHEDULE RULESET 55\", Blank Schedule Type Limits Name input -- will not be validated.\n   ** Warning ** ProcessScheduleInput: Schedule:Year=\"SCHEDULE RULESET 56\", Blank Schedule Type Limits Name input -- will not be validated.\n   ** Warning ** ProcessScheduleInput: Schedule:Year=\"SCHEDULE RULESET 57\", Blank Schedule Type Limits Name input -- will not be validated.\n   ** Warning ** ProcessScheduleInput: Schedule:Year=\"SCHEDULE RULESET 58\", Blank Schedule Type Limits Name input -- will not be validated.\n   ** Warning ** ProcessScheduleInput: Schedule:Year=\"SCHEDULE RULESET 59\", Blank Schedule Type Limits Name input -- will not be validated.\n   ** Warning ** ProcessScheduleInput: Schedule:Year=\"SCHEDULE RULESET 6\", Blank Schedule Type Limits Name input -- will not be validated.\n   ** Warning ** ProcessScheduleInput: Schedule:Year=\"SCHEDULE RULESET 7\", Blank Schedule Type Limits Name input -- will not be validated.\n   ** Warning ** ProcessScheduleInput: Schedule:Year=\"SCHEDULE RULESET 8\", Blank Schedule Type Limits Name input -- will not be validated.\n   ** Warning ** ProcessScheduleInput: Schedule:Year=\"SCHEDULE RULESET 9\", Blank Schedule Type Limits Name input -- will not be validated.\n   ** Warning ** ProcessScheduleInput: Schedule:Constant=\"ALWAYS OFF DISCRETE\", Blank Schedule Type Limits Name input -- will not be validated.\n   ** Warning ** ProcessScheduleInput: Schedule:Constant=\"ALWAYS ON CONTINUOUS\", Blank Schedule Type Limits Name input -- will not be validated.\n   ** Warning ** CheckUsedConstructions: There are 23 nominally unused constructions in input.\n   **   ~~~   ** For explicit details on each unused construction, use Output:Diagnostics,DisplayExtraWarnings;\n   ** Warning ** GetInternalHeatGains: ElectricEquipment Combination of ZoneList and Object Name generate a name too long.\n   **   ~~~   ** Object Name=\"SPACE FUNCTION HOSPITAL - LAUNDRY/WASHING ELEC EQUIP\".\n   **   ~~~   ** ZoneList/Zone Name=\"SP-LAUNDRY_FLR_1 SYS-3 FLR-1 SCH-C HPLCMT-EAST ZN\".\n   **   ~~~   ** Item length=[101] > Maximum Length=[100]. You may need to shorten the names.\n   **   ~~~   ** Shortening the Object Name by [2] characters will assure uniqueness for this ZoneList.\n   **   ~~~   ** name that will be used (may be needed in reporting)=\"SP-LAUNDRY_FLR_1 SYS-3 FLR-1 SCH-C HPLCMT-EAST ZN SPACE FUNCTION HOSPITAL - LAUNDRY/WASHING ELEC EQUIP\".\n   ** Warning ** GetInternalHeatGains: ElectricEquipment Combination of ZoneList and Object Name generate a name too long.\n   **   ~~~   ** Object Name=\"SPACE FUNCTION HOTEL/MOTEL - ROOMS ELEC EQUIP\".\n   **   ~~~   ** ZoneList/Zone Name=\"SP-ROOM_3_MULT19_FLR_3 SYS-1 FLR-2 SCH-F HPLCMT-SOUTH ZN\".\n   **   ~~~   ** Item length=[101] > Maximum Length=[100]. You may need to shorten the names.\n   **   ~~~   ** Shortening the Object Name by [2] characters will assure uniqueness for this ZoneList.\n   **   ~~~   ** name that will be used (may be needed in reporting)=\"SP-ROOM_3_MULT19_FLR_3 SYS-1 FLR-2 SCH-F HPLCMT-SOUTH ZN SPACE FUNCTION HOTEL/MOTEL - ROOMS ELEC EQUIP\".\n   ** Warning ** GetInternalHeatGains: ElectricEquipment Combination of ZoneList and Object Name generate a name too long.\n   **   ~~~   ** Object Name=\"SPACE FUNCTION HOTEL/MOTEL - ROOMS ELEC EQUIP\".\n   **   ~~~   ** ZoneList/Zone Name=\"SP-ROOM_4_MULT19_FLR_3 SYS-1 FLR-2 SCH-F HPLCMT-NORTH ZN\".\n   **   ~~~   ** Item length=[101] > Maximum Length=[100]. You may need to shorten the names.\n   **   ~~~   ** Shortening the Object Name by [2] characters will assure uniqueness for this ZoneList.\n   **   ~~~   ** name that will be used (may be needed in reporting)=\"SP-ROOM_4_MULT19_FLR_3 SYS-1 FLR-2 SCH-F HPLCMT-NORTH ZN SPACE FUNCTION HOTEL/MOTEL - ROOMS ELEC EQUIP\".\n   ** Warning ** Calculated design heating load for zone=SP-BASEMENT SYS-4 FLR-3 SCH-E HPLCMT-NORTH ZN is zero.\n   **   ~~~   ** Check Sizing:Zone and ZoneControl:Thermostat inputs.\n   ** Warning ** Calculated design heating load for zone=SP-LOBBY_FLR_1 SYS-6 FLR-1 SCH-H HPLCMT-NORTH ZN is zero.\n   **   ~~~   ** Check Sizing:Zone and ZoneControl:Thermostat inputs.\n   ************* Beginning System Sizing Calculations\n   ** Warning ** Since Zone Minimum Air Flow Input Method = CONSTANT, input for Fixed Minimum Air Flow Rate will be ignored.\n   **   ~~~   ** Occurs in AirTerminal:SingleDuct:VAV:Reheat = AIR TERMINAL SINGLE DUCT VAV REHEAT 1\n   ** Warning ** Since Zone Minimum Air Flow Input Method = CONSTANT, input for Fixed Minimum Air Flow Rate will be ignored.\n   **   ~~~   ** Occurs in AirTerminal:SingleDuct:VAV:Reheat = AIR TERMINAL SINGLE DUCT VAV REHEAT 2\n   ** Warning ** Since Zone Minimum Air Flow Input Method = CONSTANT, input for Fixed Minimum Air Flow Rate will be ignored.\n   **   ~~~   ** Occurs in AirTerminal:SingleDuct:VAV:Reheat = AIR TERMINAL SINGLE DUCT VAV REHEAT 4\n   ** Warning ** Since Zone Minimum Air Flow Input Method = CONSTANT, input for Fixed Minimum Air Flow Rate will be ignored.\n   **   ~~~   ** Occurs in AirTerminal:SingleDuct:VAV:Reheat = AIR TERMINAL SINGLE DUCT VAV REHEAT 3\n   ** Warning ** Since Zone Minimum Air Flow Input Method = CONSTANT, input for Fixed Minimum Air Flow Rate will be ignored.\n   **   ~~~   ** Occurs in AirTerminal:SingleDuct:VAV:Reheat = AIR TERMINAL SINGLE DUCT VAV REHEAT 5\n   ** Warning ** GetDXCoils: Coil:Cooling:DX:SingleSpeed=\"COIL COOLING DX SINGLE SPEED 8 55KBTU/HR 9.3EER\", invalid\n   **   ~~~   ** ...Part Load Fraction Correlation Curve Name = DXCOOL-NECB2011-REF-COOLPLFFPLR 16 has out of range value.\n   **   ~~~   ** ...Curve maximum must be <= 1.0, curve max at PLR = 0.99 is 1.015\n   **   ~~~   ** ...Setting curve maximum to 1.0 and simulation continues.\n   ** Warning ** GetDXCoils: Coil:Cooling:DX:SingleSpeed=\"COIL COOLING DX SINGLE SPEED 5 17KBTU/HR 9.3EER\", invalid\n   **   ~~~   ** ...Part Load Fraction Correlation Curve Name = DXCOOL-NECB2011-REF-COOLPLFFPLR 13 has out of range value.\n   **   ~~~   ** ...Curve maximum must be <= 1.0, curve max at PLR = 0.99 is 1.015\n   **   ~~~   ** ...Setting curve maximum to 1.0 and simulation continues.\n   ** Warning ** GetDXCoils: Coil:Cooling:DX:SingleSpeed=\"COIL COOLING DX SINGLE SPEED 9 20KBTU/HR 9.3EER\", invalid\n   **   ~~~   ** ...Part Load Fraction Correlation Curve Name = DXCOOL-NECB2011-REF-COOLPLFFPLR 17 has out of range value.\n   **   ~~~   ** ...Curve maximum must be <= 1.0, curve max at PLR = 0.99 is 1.015\n   **   ~~~   ** ...Setting curve maximum to 1.0 and simulation continues.\n   ** Warning ** GetDXCoils: Coil:Cooling:DX:SingleSpeed=\"COIL COOLING DX SINGLE SPEED 6 17KBTU/HR 9.3EER\", invalid\n   **   ~~~   ** ...Part Load Fraction Correlation Curve Name = DXCOOL-NECB2011-REF-COOLPLFFPLR 14 has out of range value.\n   **   ~~~   ** ...Curve maximum must be <= 1.0, curve max at PLR = 0.99 is 1.015\n   **   ~~~   ** ...Setting curve maximum to 1.0 and simulation continues.\n   ** Warning ** GetDXCoils: Coil:Cooling:DX:SingleSpeed=\"COIL COOLING DX SINGLE SPEED 10 19KBTU/HR 9.3EER\", invalid\n   **   ~~~   ** ...Part Load Fraction Correlation Curve Name = DXCOOL-NECB2011-REF-COOLPLFFPLR 1 has out of range value.\n   **   ~~~   ** ...Curve maximum must be <= 1.0, curve max at PLR = 0.99 is 1.015\n   **   ~~~   ** ...Setting curve maximum to 1.0 and simulation continues.\n   ** Warning ** GetDXCoils: Coil:Cooling:DX:SingleSpeed=\"COIL COOLING DX SINGLE SPEED 7 5KBTU/HR 11.0EER\", invalid\n   **   ~~~   ** ...Part Load Fraction Correlation Curve Name = DXCOOL-NECB2011-REF-COOLPLFFPLR 15 has out of range value.\n   **   ~~~   ** ...Curve maximum must be <= 1.0, curve max at PLR = 0.99 is 1.015\n   **   ~~~   ** ...Setting curve maximum to 1.0 and simulation continues.\n   ** Warning ** GetDXCoils: Coil:Cooling:DX:SingleSpeed=\"COIL COOLING DX SINGLE SPEED 11 9KBTU/HR 10.5EER\", invalid\n   **   ~~~   ** ...Part Load Fraction Correlation Curve Name = DXCOOL-NECB2011-REF-COOLPLFFPLR 2 has out of range value.\n   **   ~~~   ** ...Curve maximum must be <= 1.0, curve max at PLR = 0.99 is 1.015\n   **   ~~~   ** ...Setting curve maximum to 1.0 and simulation continues.\n   ** Warning ** GetDXCoils: Coil:Cooling:DX:SingleSpeed=\"COIL COOLING DX SINGLE SPEED 2 3KBTU/HR 11.0EER\", invalid\n   **   ~~~   ** ...Part Load Fraction Correlation Curve Name = DXCOOL-NECB2011-REF-COOLPLFFPLR 10 has out of range value.\n   **   ~~~   ** ...Curve maximum must be <= 1.0, curve max at PLR = 0.99 is 1.015\n   **   ~~~   ** ...Setting curve maximum to 1.0 and simulation continues.\n   ** Warning ** GetDXCoils: Coil:Cooling:DX:SingleSpeed=\"COIL COOLING DX SINGLE SPEED 4 16KBTU/HR 9.3EER\", invalid\n   **   ~~~   ** ...Part Load Fraction Correlation Curve Name = DXCOOL-NECB2011-REF-COOLPLFFPLR 12 has out of range value.\n   **   ~~~   ** ...Curve maximum must be <= 1.0, curve max at PLR = 0.99 is 1.015\n   **   ~~~   ** ...Setting curve maximum to 1.0 and simulation continues.\n   ** Warning ** GetDXCoils: Coil:Cooling:DX:SingleSpeed=\"COIL COOLING DX SINGLE SPEED 3 16KBTU/HR 9.3EER\", invalid\n   **   ~~~   ** ...Part Load Fraction Correlation Curve Name = DXCOOL-NECB2011-REF-COOLPLFFPLR 11 has out of range value.\n   **   ~~~   ** ...Curve maximum must be <= 1.0, curve max at PLR = 0.99 is 1.015\n   **   ~~~   ** ...Setting curve maximum to 1.0 and simulation continues.\n   ** Warning ** GetDXCoils: Coil:Cooling:DX:SingleSpeed=\"COIL COOLING DX SINGLE SPEED 1 248KBTU/HR 9.7EER\", invalid\n   **   ~~~   ** ...Part Load Fraction Correlation Curve Name = DXCOOL-NECB2011-REF-COOLPLFFPLR has out of range value.\n   **   ~~~   ** ...Curve maximum must be <= 1.0, curve max at PLR = 0.99 is 1.015\n   **   ~~~   ** ...Setting curve maximum to 1.0 and simulation continues.\n   ** Warning ** GetDXCoils: Coil:Cooling:DX:SingleSpeed=\"COIL COOLING DX SINGLE SPEED 14 101KBTU/HR 9.7EER\", invalid\n   **   ~~~   ** ...Part Load Fraction Correlation Curve Name = DXCOOL-NECB2011-REF-COOLPLFFPLR 5 has out of range value.\n   **   ~~~   ** ...Curve maximum must be <= 1.0, curve max at PLR = 0.99 is 1.015\n   **   ~~~   ** ...Setting curve maximum to 1.0 and simulation continues.\n   ** Warning ** GetDXCoils: Coil:Cooling:DX:SingleSpeed=\"COIL COOLING DX SINGLE SPEED 18 86KBTU/HR 9.7EER\", invalid\n   **   ~~~   ** ...Part Load Fraction Correlation Curve Name = DXCOOL-NECB2011-REF-COOLPLFFPLR 9 has out of range value.\n   **   ~~~   ** ...Curve maximum must be <= 1.0, curve max at PLR = 0.99 is 1.015\n   **   ~~~   ** ...Setting curve maximum to 1.0 and simulation continues.\n   ** Warning ** GetDXCoils: Coil:Cooling:DX:SingleSpeed=\"COIL COOLING DX SINGLE SPEED 13 74KBTU/HR 9.7EER\", invalid\n   **   ~~~   ** ...Part Load Fraction Correlation Curve Name = DXCOOL-NECB2011-REF-COOLPLFFPLR 4 has out of range value.\n   **   ~~~   ** ...Curve maximum must be <= 1.0, curve max at PLR = 0.99 is 1.015\n   **   ~~~   ** ...Setting curve maximum to 1.0 and simulation continues.\n   ** Warning ** GetDXCoils: Coil:Cooling:DX:SingleSpeed=\"COIL COOLING DX SINGLE SPEED 15 101KBTU/HR 9.7EER\", invalid\n   **   ~~~   ** ...Part Load Fraction Correlation Curve Name = DXCOOL-NECB2011-REF-COOLPLFFPLR 6 has out of range value.\n   **   ~~~   ** ...Curve maximum must be <= 1.0, curve max at PLR = 0.99 is 1.015\n   **   ~~~   ** ...Setting curve maximum to 1.0 and simulation continues.\n   ** Warning ** GetDXCoils: Coil:Cooling:DX:SingleSpeed=\"COIL COOLING DX SINGLE SPEED 16 42KBTU/HR 14.0SEER\", invalid\n   **   ~~~   ** ...Part Load Fraction Correlation Curve Name = DXCOOL-NECB2011-REF-COOLPLFFPLR 7 has out of range value.\n   **   ~~~   ** ...Curve maximum must be <= 1.0, curve max at PLR = 0.99 is 1.015\n   **   ~~~   ** ...Setting curve maximum to 1.0 and simulation continues.\n   ** Warning ** GetDXCoils: Coil:Cooling:DX:SingleSpeed=\"COIL COOLING DX SINGLE SPEED 12 18KBTU/HR 14.0SEER\", invalid\n   **   ~~~   ** ...Part Load Fraction Correlation Curve Name = DXCOOL-NECB2011-REF-COOLPLFFPLR 3 has out of range value.\n   **   ~~~   ** ...Curve maximum must be <= 1.0, curve max at PLR = 0.99 is 1.015\n   **   ~~~   ** ...Setting curve maximum to 1.0 and simulation continues.\n   ** Warning ** GetDXCoils: Coil:Cooling:DX:SingleSpeed=\"COIL COOLING DX SINGLE SPEED 17 6KBTU/HR 14.0SEER\", invalid\n   **   ~~~   ** ...Part Load Fraction Correlation Curve Name = DXCOOL-NECB2011-REF-COOLPLFFPLR 8 has out of range value.\n   **   ~~~   ** ...Curve maximum must be <= 1.0, curve max at PLR = 0.99 is 1.015\n   **   ~~~   ** ...Setting curve maximum to 1.0 and simulation continues.\n   ************* Beginning Plant Sizing Calculations\n   ** Warning ** The Standard Ratings is calculated for Coil:Cooling:DX:SingleSpeed = COIL COOLING DX SINGLE SPEED 8 55KBTU/HR 9.3EER but not at the AHRI test condition due to curve out of bound.\n   **   ~~~   **  Review the Standard Ratings calculations in the Engineering Reference for this coil type. Also, use Output:Diagnostics, DisplayExtraWarnings for further guidance.\n   ** Warning ** The Standard Ratings is calculated for Coil:Cooling:DX:SingleSpeed = COIL COOLING DX SINGLE SPEED 5 17KBTU/HR 9.3EER but not at the AHRI test condition due to curve out of bound.\n   **   ~~~   **  Review the Standard Ratings calculations in the Engineering Reference for this coil type. Also, use Output:Diagnostics, DisplayExtraWarnings for further guidance.\n   ** Warning ** The Standard Ratings is calculated for Coil:Cooling:DX:SingleSpeed = COIL COOLING DX SINGLE SPEED 9 20KBTU/HR 9.3EER but not at the AHRI test condition due to curve out of bound.\n   **   ~~~   **  Review the Standard Ratings calculations in the Engineering Reference for this coil type. Also, use Output:Diagnostics, DisplayExtraWarnings for further guidance.\n   ** Warning ** The Standard Ratings is calculated for Coil:Cooling:DX:SingleSpeed = COIL COOLING DX SINGLE SPEED 6 17KBTU/HR 9.3EER but not at the AHRI test condition due to curve out of bound.\n   **   ~~~   **  Review the Standard Ratings calculations in the Engineering Reference for this coil type. Also, use Output:Diagnostics, DisplayExtraWarnings for further guidance.\n   ** Warning ** The Standard Ratings is calculated for Coil:Cooling:DX:SingleSpeed = COIL COOLING DX SINGLE SPEED 10 19KBTU/HR 9.3EER but not at the AHRI test condition due to curve out of bound.\n   **   ~~~   **  Review the Standard Ratings calculations in the Engineering Reference for this coil type. Also, use Output:Diagnostics, DisplayExtraWarnings for further guidance.\n   ** Warning ** The Standard Ratings is calculated for Coil:Cooling:DX:SingleSpeed = COIL COOLING DX SINGLE SPEED 7 5KBTU/HR 11.0EER but not at the AHRI test condition due to curve out of bound.\n   **   ~~~   **  Review the Standard Ratings calculations in the Engineering Reference for this coil type. Also, use Output:Diagnostics, DisplayExtraWarnings for further guidance.\n   ** Warning ** The Standard Ratings is calculated for Coil:Cooling:DX:SingleSpeed = COIL COOLING DX SINGLE SPEED 11 9KBTU/HR 10.5EER but not at the AHRI test condition due to curve out of bound.\n   **   ~~~   **  Review the Standard Ratings calculations in the Engineering Reference for this coil type. Also, use Output:Diagnostics, DisplayExtraWarnings for further guidance.\n   ** Warning ** The Standard Ratings is calculated for Coil:Cooling:DX:SingleSpeed = COIL COOLING DX SINGLE SPEED 2 3KBTU/HR 11.0EER but not at the AHRI test condition due to curve out of bound.\n   **   ~~~   **  Review the Standard Ratings calculations in the Engineering Reference for this coil type. Also, use Output:Diagnostics, DisplayExtraWarnings for further guidance.\n   ** Warning ** The Standard Ratings is calculated for Coil:Cooling:DX:SingleSpeed = COIL COOLING DX SINGLE SPEED 4 16KBTU/HR 9.3EER but not at the AHRI test condition due to curve out of bound.\n   **   ~~~   **  Review the Standard Ratings calculations in the Engineering Reference for this coil type. Also, use Output:Diagnostics, DisplayExtraWarnings for further guidance.\n   ** Warning ** The Standard Ratings is calculated for Coil:Cooling:DX:SingleSpeed = COIL COOLING DX SINGLE SPEED 3 16KBTU/HR 9.3EER but not at the AHRI test condition due to curve out of bound.\n   **   ~~~   **  Review the Standard Ratings calculations in the Engineering Reference for this coil type. Also, use Output:Diagnostics, DisplayExtraWarnings for further guidance.\n   ** Warning ** The Standard Ratings is calculated for Coil:Cooling:DX:SingleSpeed = COIL COOLING DX SINGLE SPEED 1 248KBTU/HR 9.7EER but not at the AHRI test condition due to curve out of bound.\n   **   ~~~   **  Review the Standard Ratings calculations in the Engineering Reference for this coil type. Also, use Output:Diagnostics, DisplayExtraWarnings for further guidance.\n   ** Warning ** The Standard Ratings is calculated for Coil:Cooling:DX:SingleSpeed = COIL COOLING DX SINGLE SPEED 14 101KBTU/HR 9.7EER but not at the AHRI test condition due to curve out of bound.\n   **   ~~~   **  Review the Standard Ratings calculations in the Engineering Reference for this coil type. Also, use Output:Diagnostics, DisplayExtraWarnings for further guidance.\n   ** Warning ** The Standard Ratings is calculated for Coil:Cooling:DX:SingleSpeed = COIL COOLING DX SINGLE SPEED 18 86KBTU/HR 9.7EER but not at the AHRI test condition due to curve out of bound.\n   **   ~~~   **  Review the Standard Ratings calculations in the Engineering Reference for this coil type. Also, use Output:Diagnostics, DisplayExtraWarnings for further guidance.\n   ** Warning ** The Standard Ratings is calculated for Coil:Cooling:DX:SingleSpeed = COIL COOLING DX SINGLE SPEED 13 74KBTU/HR 9.7EER but not at the AHRI test condition due to curve out of bound.\n   **   ~~~   **  Review the Standard Ratings calculations in the Engineering Reference for this coil type. Also, use Output:Diagnostics, DisplayExtraWarnings for further guidance.\n   ** Warning ** The Standard Ratings is calculated for Coil:Cooling:DX:SingleSpeed = COIL COOLING DX SINGLE SPEED 15 101KBTU/HR 9.7EER but not at the AHRI test condition due to curve out of bound.\n   **   ~~~   **  Review the Standard Ratings calculations in the Engineering Reference for this coil type. Also, use Output:Diagnostics, DisplayExtraWarnings for further guidance.\n   ** Warning ** The Standard Ratings is calculated for Coil:Cooling:DX:SingleSpeed = COIL COOLING DX SINGLE SPEED 16 42KBTU/HR 14.0SEER but not at the AHRI test condition due to curve out of bound.\n   **   ~~~   **  Review the Standard Ratings calculations in the Engineering Reference for this coil type. Also, use Output:Diagnostics, DisplayExtraWarnings for further guidance.\n   ** Warning ** The Standard Ratings is calculated for Coil:Cooling:DX:SingleSpeed = COIL COOLING DX SINGLE SPEED 12 18KBTU/HR 14.0SEER but not at the AHRI test condition due to curve out of bound.\n   **   ~~~   **  Review the Standard Ratings calculations in the Engineering Reference for this coil type. Also, use Output:Diagnostics, DisplayExtraWarnings for further guidance.\n   ** Warning ** The Standard Ratings is calculated for Coil:Cooling:DX:SingleSpeed = COIL COOLING DX SINGLE SPEED 17 6KBTU/HR 14.0SEER but not at the AHRI test condition due to curve out of bound.\n   **   ~~~   **  Review the Standard Ratings calculations in the Engineering Reference for this coil type. Also, use Output:Diagnostics, DisplayExtraWarnings for further guidance.\n   ** Warning ** Missing temperature setpoint for LeavingSetpointModulated mode chiller named PRIMARY CHILLER WATERCOOLED SCROLL 34TONS 0.8KW/TON\n   **   ~~~   **   A temperature setpoint is needed at the outlet node of a chiller in variable flow mode, use a SetpointManager\n   **   ~~~   **   The overall loop setpoint will be assumed for chiller. The simulation continues ... \n   ** Warning ** Missing temperature setpoint for LeavingSetpointModulated mode chiller named SECONDARY CHILLER WATERCOOLED SCROLL 0TONS 0.8KW/TON\n   **   ~~~   **   A temperature setpoint is needed at the outlet node of a chiller in variable flow mode, use a SetpointManager\n   **   ~~~   **   The overall loop setpoint will be assumed for chiller. The simulation continues ... \n   ** Warning ** Water heater = 600.0GAL ELECTRICITY WATER HEATER - 600KBTU/HR 1.0 THERM EFF:  Recovery Efficiency and Energy Factor could not be calculated during the test for standard ratings\n   **   ~~~   ** Setpoint was never recovered and/or heater never turned on\n   ** Warning ** Output:Meter: invalid Name=\"GAS:FACILITY\" - not found.\n   ** Warning ** Output:Meter: invalid Name=\"DISTRICTCOOLING:FACILITY\" - not found.\n   ** Warning ** Output:Meter: invalid Name=\"DISTRICTHEATING:FACILITY\" - not found.\n   ** Warning ** Output:Meter:MeterFileOnly: invalid Name=\"GAS:FACILITY\" - not found.\n   ** Warning ** Output:Meter:MeterFileOnly requested for \"Electricity:Facility\" (TimeStep), already on \"Output:Meter\". Will report to both eplusout.eso and eplusout.mtr\n   ************* Testing Individual Branch Integrity\n   ************* All Branches passed integrity testing\n   ************* Testing Individual Supply Air Path Integrity\n   ************* All Supply Air Paths passed integrity testing\n   ************* Testing Individual Return Air Path Integrity\n   ************* All Return Air Paths passed integrity testing\n   ************* No node connection errors were found.\n   ************* Beginning Simulation\n   ** Warning ** CalcDoe2DXCoil: Coil:Cooling:DX:SingleSpeed \"COIL COOLING DX SINGLE SPEED 16 42KBTU/HR 14.0SEER\" - Air-cooled condenser inlet dry-bulb temperature below 0 C. Outdoor dry-bulb temperature = -24.28\n   **   ~~~   **  ... Occurrence info = RUN PERIOD 1, 01/01 09:02 - 09:05\n   **   ~~~   ** ... Operation at low ambient temperatures may require special performance curves.\n   ** Warning ** CalcDoe2DXCoil: Coil:Cooling:DX:SingleSpeed \"COIL COOLING DX SINGLE SPEED 11 9KBTU/HR 10.5EER\" - Air-cooled condenser inlet dry-bulb temperature below 0 C. Outdoor dry-bulb temperature = -22.00\n   **   ~~~   **  ... Occurrence info = RUN PERIOD 1, 01/01 10:45 - 10:52\n   **   ~~~   ** ... Operation at low ambient temperatures may require special performance curves.\n   ** Warning ** CalcDoe2DXCoil: Coil:Cooling:DX:SingleSpeed \"COIL COOLING DX SINGLE SPEED 7 5KBTU/HR 11.0EER\" - Air-cooled condenser inlet dry-bulb temperature below 0 C. Outdoor dry-bulb temperature = -22.00\n   **   ~~~   **  ... Occurrence info = RUN PERIOD 1, 01/01 10:53 - 11:00\n   **   ~~~   ** ... Operation at low ambient temperatures may require special performance curves.\n   ** Warning ** SimHVAC: Maximum iterations (20) exceeded for all HVAC loops, at RUN PERIOD 1, 01/01 11:15 - 11:30\n   **   ~~~   ** The solution for one or more of the Air Loop HVAC systems did not appear to converge\n   **   ~~~   ** ...use Output:Diagnostics,DisplayExtraWarnings; to show more details on each max iteration exceeded.\n   ** Warning ** SimHVAC: Maximum iterations (20) exceeded for all HVAC loops, at RUN PERIOD 1, 01/01 11:15 - 11:22\n   **   ~~~   ** The solution for one or more of the Air Loop HVAC systems did not appear to converge\n   ** Warning ** SimHVAC: Maximum iterations (20) exceeded for all HVAC loops, at RUN PERIOD 1, 01/01 11:30 - 11:38\n   **   ~~~   ** The solution for one or more of the Air Loop HVAC systems did not appear to converge\n   ** Warning ** CalcDoe2DXCoil: Coil:Cooling:DX:SingleSpeed \"COIL COOLING DX SINGLE SPEED 16 42KBTU/HR 14.0SEER\" - Full load outlet air dry-bulb temperature < 2C. This indicates the possibility of coil frost/freeze. Outlet temperature = 1.59 C.\n   **   ~~~   **  ...Occurrence info = RUN PERIOD 1, 01/02 00:02 - 00:03\n   **   ~~~   ** ... Possible reasons for low outlet air dry-bulb temperatures are: This DX coil\n   **   ~~~   **    1) may have a low inlet air dry-bulb temperature. Inlet air temperature = 14.823 C.\n   **   ~~~   **    2) may have a low air flow rate per watt of cooling capacity. Check inputs.\n   **   ~~~   **    3) is used as part of a HX assisted cooling coil which uses a high sensible effectiveness. Check inputs.\n   ** Warning ** SimHVAC: Maximum iterations (20) exceeded for all HVAC loops, at RUN PERIOD 1, 01/04 11:15 - 11:30\n   **   ~~~   ** The solution for one or more of the Air Loop HVAC systems did not appear to converge\n   ** Warning ** SimHVAC: Maximum iterations (20) exceeded for all HVAC loops, at RUN PERIOD 1, 01/04 11:23 - 11:26\n   **   ~~~   ** The solution for one or more of the Air Loop HVAC systems did not appear to converge\n   ** Warning ** CalcDoe2DXCoil: Coil:Cooling:DX:SingleSpeed \"COIL COOLING DX SINGLE SPEED 7 5KBTU/HR 11.0EER\" - Full load outlet air dry-bulb temperature < 2C. This indicates the possibility of coil frost/freeze. Outlet temperature = 1.65 C.\n   **   ~~~   **  ...Occurrence info = RUN PERIOD 1, 01/04 11:23 - 11:26\n   **   ~~~   ** ... Possible reasons for low outlet air dry-bulb temperatures are: This DX coil\n   **   ~~~   **    1) may have a low inlet air dry-bulb temperature. Inlet air temperature = 14.919 C.\n   **   ~~~   **    2) may have a low air flow rate per watt of cooling capacity. Check inputs.\n   **   ~~~   **    3) is used as part of a HX assisted cooling coil which uses a high sensible effectiveness. Check inputs.\n   ** Warning ** SimHVAC: Maximum iterations (20) exceeded for all HVAC loops, at RUN PERIOD 1, 01/04 11:30 - 11:45\n   **   ~~~   ** The solution for one or more of the Air Loop HVAC systems did not appear to converge\n   ** Warning ** SimHVAC: Maximum iterations (20) exceeded for all HVAC loops, at RUN PERIOD 1, 01/04 11:45 - 12:00\n   **   ~~~   ** The solution for one or more of the Air Loop HVAC systems did not appear to converge\n   ** Warning ** SimHVAC: Maximum iterations (20) exceeded for all HVAC loops, at RUN PERIOD 1, 01/04 12:00 - 12:15\n   **   ~~~   ** The solution for one or more of the Air Loop HVAC systems did not appear to converge\n   ** Warning ** SimHVAC: Maximum iterations (20) exceeded for all HVAC loops, at RUN PERIOD 1, 01/04 12:15 - 12:30\n   **   ~~~   ** The solution for one or more of the Air Loop HVAC systems did not appear to converge\n   ** Warning ** SimHVAC: Maximum iterations (20) exceeded for all HVAC loops, at RUN PERIOD 1, 01/04 12:30 - 12:45\n   **   ~~~   ** The solution for one or more of the Air Loop HVAC systems did not appear to converge\n   ** Warning ** SimHVAC: Maximum iterations (20) exceeded for all HVAC loops, at RUN PERIOD 1, 01/04 12:45 - 13:00\n   **   ~~~   ** The solution for one or more of the Air Loop HVAC systems did not appear to converge\n   ** Warning ** SimHVAC: Maximum iterations (20) exceeded for all HVAC loops, at RUN PERIOD 1, 01/04 13:00 - 13:15\n   **   ~~~   ** The solution for one or more of the Air Loop HVAC systems did not appear to converge\n   ** Warning ** SimHVAC: Maximum iterations (20) exceeded for all HVAC loops, at RUN PERIOD 1, 01/04 13:15 - 13:30\n   **   ~~~   ** The solution for one or more of the Air Loop HVAC systems did not appear to converge\n   ** Warning ** SimHVAC: Maximum iterations (20) exceeded for all HVAC loops, at RUN PERIOD 1, 01/04 13:30 - 13:45\n   **   ~~~   ** The solution for one or more of the Air Loop HVAC systems did not appear to converge\n   ** Warning ** CalcDoe2DXCoil: Coil:Cooling:DX:SingleSpeed \"COIL COOLING DX SINGLE SPEED 5 17KBTU/HR 9.3EER\" - Air-cooled condenser inlet dry-bulb temperature below 0 C. Outdoor dry-bulb temperature = -26.30\n   **   ~~~   **  ... Occurrence info = RUN PERIOD 1, 01/04 14:53 - 15:00\n   **   ~~~   ** ... Operation at low ambient temperatures may require special performance curves.\n   ** Warning ** CalcDoe2DXCoil: Coil:Cooling:DX:SingleSpeed \"COIL COOLING DX SINGLE SPEED 4 16KBTU/HR 9.3EER\" - Air-cooled condenser inlet dry-bulb temperature below 0 C. Outdoor dry-bulb temperature = -27.15\n   **   ~~~   **  ... Occurrence info = RUN PERIOD 1, 01/05 12:00 - 12:15\n   **   ~~~   ** ... Operation at low ambient temperatures may require special performance curves.\n   ** Warning ** CalcDoe2DXCoil: Coil:Cooling:DX:SingleSpeed \"COIL COOLING DX SINGLE SPEED 9 20KBTU/HR 9.3EER\" - Air-cooled condenser inlet dry-bulb temperature below 0 C. Outdoor dry-bulb temperature = -20.43\n   **   ~~~   **  ... Occurrence info = RUN PERIOD 1, 01/08 15:00 - 15:15\n   **   ~~~   ** ... Operation at low ambient temperatures may require special performance curves.\n   ** Warning ** CalcDoe2DXCoil: Coil:Cooling:DX:SingleSpeed \"COIL COOLING DX SINGLE SPEED 6 17KBTU/HR 9.3EER\" - Air-cooled condenser inlet dry-bulb temperature below 0 C. Outdoor dry-bulb temperature = -8.58\n   **   ~~~   **  ... Occurrence info = RUN PERIOD 1, 01/14 15:30 - 15:35\n   **   ~~~   ** ... Operation at low ambient temperatures may require special performance curves.\n   ** Warning ** CalcDoe2DXCoil: Coil:Cooling:DX:SingleSpeed \"COIL COOLING DX SINGLE SPEED 10 19KBTU/HR 9.3EER\" - Air-cooled condenser inlet dry-bulb temperature below 0 C. Outdoor dry-bulb temperature = -8.58\n   **   ~~~   **  ... Occurrence info = RUN PERIOD 1, 01/14 15:35 - 15:40\n   **   ~~~   ** ... Operation at low ambient temperatures may require special performance curves.\n   ** Warning ** CalcDoe2DXCoil: Coil:Cooling:DX:SingleSpeed \"COIL COOLING DX SINGLE SPEED 17 6KBTU/HR 14.0SEER\" - Air-cooled condenser inlet dry-bulb temperature below 0 C. Outdoor dry-bulb temperature = -8.45\n   **   ~~~   **  ... Occurrence info = RUN PERIOD 1, 02/10 08:06 - 08:09\n   **   ~~~   ** ... Operation at low ambient temperatures may require special performance curves.\n   ** Warning ** CalcDoe2DXCoil: Coil:Cooling:DX:SingleSpeed \"COIL COOLING DX SINGLE SPEED 17 6KBTU/HR 14.0SEER\" - Full load outlet air dry-bulb temperature < 2C. This indicates the possibility of coil frost/freeze. Outlet temperature = -4.08 C.\n   **   ~~~   **  ...Occurrence info = RUN PERIOD 1, 02/10 08:06 - 08:09\n   **   ~~~   ** ... Possible reasons for low outlet air dry-bulb temperatures are: This DX coil\n   **   ~~~   **    1) may have a low inlet air dry-bulb temperature. Inlet air temperature = 11.793 C.\n   **   ~~~   **    2) may have a low air flow rate per watt of cooling capacity. Check inputs.\n   **   ~~~   **    3) is used as part of a HX assisted cooling coil which uses a high sensible effectiveness. Check inputs.\n   ** Warning ** CalcDoe2DXCoil: Coil:Cooling:DX:SingleSpeed \"COIL COOLING DX SINGLE SPEED 3 16KBTU/HR 9.3EER\" - Air-cooled condenser inlet dry-bulb temperature below 0 C. Outdoor dry-bulb temperature = -18.60\n   **   ~~~   **  ... Occurrence info = RUN PERIOD 1, 02/11 10:25 - 10:30\n   **   ~~~   ** ... Operation at low ambient temperatures may require special performance curves.\n   ** Warning ** CalcDoe2DXCoil: Coil:Cooling:DX:SingleSpeed \"COIL COOLING DX SINGLE SPEED 2 3KBTU/HR 11.0EER\" - Air-cooled condenser inlet dry-bulb temperature below 0 C. Outdoor dry-bulb temperature = -1.00\n   **   ~~~   **  ... Occurrence info = RUN PERIOD 1, 03/11 22:15 - 22:30\n   **   ~~~   ** ... Operation at low ambient temperatures may require special performance curves.\n   ** Warning ** CalcDoe2DXCoil: Coil:Cooling:DX:SingleSpeed \"COIL COOLING DX SINGLE SPEED 8 55KBTU/HR 9.3EER\" - Air-cooled condenser inlet dry-bulb temperature below 0 C. Outdoor dry-bulb temperature = -0.18\n   **   ~~~   **  ... Occurrence info = RUN PERIOD 1, 03/20 17:30 - 17:38\n   **   ~~~   ** ... Operation at low ambient temperatures may require special performance curves.\n   ** Warning ** CalcDoe2DXCoil: Coil:Cooling:DX:SingleSpeed \"COIL COOLING DX SINGLE SPEED 12 18KBTU/HR 14.0SEER\" - Full load outlet air dry-bulb temperature < 2C. This indicates the possibility of coil frost/freeze. Outlet temperature = 0.18 C.\n   **   ~~~   **  ...Occurrence info = RUN PERIOD 1, 04/15 12:15 - 12:30\n   **   ~~~   ** ... Possible reasons for low outlet air dry-bulb temperatures are: This DX coil\n   **   ~~~   **    1) may have a low inlet air dry-bulb temperature. Inlet air temperature = 17.668 C.\n   **   ~~~   **    2) may have a low air flow rate per watt of cooling capacity. Check inputs.\n   **   ~~~   **    3) is used as part of a HX assisted cooling coil which uses a high sensible effectiveness. Check inputs.\n   ** Warning ** CalcDoe2DXCoil: Coil:Cooling:DX:SingleSpeed \"COIL COOLING DX SINGLE SPEED 18 86KBTU/HR 9.7EER\" - Full load outlet air dry-bulb temperature < 2C. This indicates the possibility of coil frost/freeze. Outlet temperature = 1.64 C.\n   **   ~~~   **  ...Occurrence info = RUN PERIOD 1, 04/21 11:53 - 12:00\n   **   ~~~   ** ... Possible reasons for low outlet air dry-bulb temperatures are: This DX coil\n   **   ~~~   **    1) may have a low inlet air dry-bulb temperature. Inlet air temperature = 17.900 C.\n   **   ~~~   **    2) may have a low air flow rate per watt of cooling capacity. Check inputs.\n   **   ~~~   **    3) is used as part of a HX assisted cooling coil which uses a high sensible effectiveness. Check inputs.\n   ** Warning ** CalcDoe2DXCoil: Coil:Cooling:DX:SingleSpeed \"COIL COOLING DX SINGLE SPEED 1 248KBTU/HR 9.7EER\" - Full load outlet air dry-bulb temperature < 2C. This indicates the possibility of coil frost/freeze. Outlet temperature = 1.37 C.\n   **   ~~~   **  ...Occurrence info = RUN PERIOD 1, 04/21 13:15 - 13:30\n   **   ~~~   ** ... Possible reasons for low outlet air dry-bulb temperatures are: This DX coil\n   **   ~~~   **    1) may have a low inlet air dry-bulb temperature. Inlet air temperature = 18.950 C.\n   **   ~~~   **    2) may have a low air flow rate per watt of cooling capacity. Check inputs.\n   **   ~~~   **    3) is used as part of a HX assisted cooling coil which uses a high sensible effectiveness. Check inputs.\n   ** Warning ** CalcDoe2DXCoil: Coil:Cooling:DX:SingleSpeed \"COIL COOLING DX SINGLE SPEED 14 101KBTU/HR 9.7EER\" - Full load outlet air dry-bulb temperature < 2C. This indicates the possibility of coil frost/freeze. Outlet temperature = 1.36 C.\n   **   ~~~   **  ...Occurrence info = RUN PERIOD 1, 04/21 13:15 - 13:30\n   **   ~~~   ** ... Possible reasons for low outlet air dry-bulb temperatures are: This DX coil\n   **   ~~~   **    1) may have a low inlet air dry-bulb temperature. Inlet air temperature = 18.950 C.\n   **   ~~~   **    2) may have a low air flow rate per watt of cooling capacity. Check inputs.\n   **   ~~~   **    3) is used as part of a HX assisted cooling coil which uses a high sensible effectiveness. Check inputs.\n   ** Warning ** CalcDoe2DXCoil: Coil:Cooling:DX:SingleSpeed \"COIL COOLING DX SINGLE SPEED 15 101KBTU/HR 9.7EER\" - Full load outlet air dry-bulb temperature < 2C. This indicates the possibility of coil frost/freeze. Outlet temperature = 1.36 C.\n   **   ~~~   **  ...Occurrence info = RUN PERIOD 1, 04/21 13:15 - 13:30\n   **   ~~~   ** ... Possible reasons for low outlet air dry-bulb temperatures are: This DX coil\n   **   ~~~   **    1) may have a low inlet air dry-bulb temperature. Inlet air temperature = 18.950 C.\n   **   ~~~   **    2) may have a low air flow rate per watt of cooling capacity. Check inputs.\n   **   ~~~   **    3) is used as part of a HX assisted cooling coil which uses a high sensible effectiveness. Check inputs.\n   ************* Simulation Error Summary *************\n   ************* There are 9 unused schedules in input.\n   ************* There are 9 unused week schedules in input.\n   ************* There are 35 unused day schedules in input.\n   ************* Use Output:Diagnostics,DisplayUnusedSchedules; to see them.\n   *************\n   ************* ===== Recurring Error Summary =====\n   ************* The following recurring error messages occurred.\n   *************\n   *************  ** Warning ** Plant loop falling below lower temperature limit, PlantLoop=\"MAIN SERVICE WATER LOOP\"\n   *************  **   ~~~   **   This error occurred 4 total times;\n   *************  **   ~~~   **   during Warmup 4 times;\n   *************  **   ~~~   **   during Sizing 0 times.\n   *************  **   ~~~   **   Min=1.645062\n   *************\n   *************  ** Warning ** CalcDoe2DXCoil: Coil:Cooling:DX:SingleSpeed=\"COIL COOLING DX SINGLE SPEED 16 42KBTU/HR 14.0SEER\" - Low condenser dry-bulb temperature error continues...\n   *************  **   ~~~   **   This error occurred 605 total times;\n   *************  **   ~~~   **   during Warmup 0 times;\n   *************  **   ~~~   **   during Sizing 0 times.\n   *************  **   ~~~   **   Max=-7.500000E-002 [C]  Min=-32.925 [C]\n   *************\n   *************  ** Warning ** CalcDoe2DXCoil: Coil:Cooling:DX:SingleSpeed=\"COIL COOLING DX SINGLE SPEED 11 9KBTU/HR 10.5EER\" - Low condenser dry-bulb temperature error continues...\n   *************  **   ~~~   **   This error occurred 4238 total times;\n   *************  **   ~~~   **   during Warmup 0 times;\n   *************  **   ~~~   **   during Sizing 0 times.\n   *************  **   ~~~   **   Max=-2.500000E-002 [C]  Min=-31.1 [C]\n   *************\n   *************  ** Warning ** CalcDoe2DXCoil: Coil:Cooling:DX:SingleSpeed=\"COIL COOLING DX SINGLE SPEED 7 5KBTU/HR 11.0EER\" - Low condenser dry-bulb temperature error continues...\n   *************  **   ~~~   **   This error occurred 8231 total times;\n   *************  **   ~~~   **   during Warmup 0 times;\n   *************  **   ~~~   **   during Sizing 0 times.\n   *************  **   ~~~   **   Max=-2.500000E-002 [C]  Min=-30.675 [C]\n   *************\n   *************  ** Warning ** CalcDoe2DXCoil: Coil:Cooling:DX:SingleSpeed=\"COIL COOLING DX SINGLE SPEED 16 42KBTU/HR 14.0SEER\" - Full load outlet temperature indicates a possibility of frost/freeze error continues. Outlet air temperature statistics follow:\n   *************  **   ~~~   **   This error occurred 12 total times;\n   *************  **   ~~~   **   during Warmup 0 times;\n   *************  **   ~~~   **   during Sizing 0 times.\n   *************  **   ~~~   **   Max=1.770401  Min=-0.445687\n   *************\n   *************  ** Warning ** CalcDoe2DXCoil: Coil:Cooling:DX:SingleSpeed=\"COIL COOLING DX SINGLE SPEED 7 5KBTU/HR 11.0EER\" - Full load outlet temperature indicates a possibility of frost/freeze error continues. Outlet air temperature statistics follow:\n   *************  **   ~~~   **   This error occurred 144 total times;\n   *************  **   ~~~   **   during Warmup 0 times;\n   *************  **   ~~~   **   during Sizing 0 times.\n   *************  **   ~~~   **   Max=1.99916  Min=1.174154\n   *************\n   *************  ** Warning ** SimHVAC: Exceeding Maximum iterations for all HVAC loops, during RUN PERIOD 1 continues\n   *************  **   ~~~   **   This error occurred 278 total times;\n   *************  **   ~~~   **   during Warmup 0 times;\n   *************  **   ~~~   **   during Sizing 0 times.\n   *************\n   *************  ** Warning ** CalcDoe2DXCoil: Coil:Cooling:DX:SingleSpeed=\"COIL COOLING DX SINGLE SPEED 5 17KBTU/HR 9.3EER\" - Low condenser dry-bulb temperature error continues...\n   *************  **   ~~~   **   This error occurred 2793 total times;\n   *************  **   ~~~   **   during Warmup 0 times;\n   *************  **   ~~~   **   during Sizing 0 times.\n   *************  **   ~~~   **   Max=-2.500000E-002 [C]  Min=-28.175 [C]\n   *************\n   *************  ** Warning ** CalcDoe2DXCoil: Coil:Cooling:DX:SingleSpeed=\"COIL COOLING DX SINGLE SPEED 4 16KBTU/HR 9.3EER\" - Low condenser dry-bulb temperature error continues...\n   *************  **   ~~~   **   This error occurred 3083 total times;\n   *************  **   ~~~   **   during Warmup 0 times;\n   *************  **   ~~~   **   during Sizing 0 times.\n   *************  **   ~~~   **   Max=-2.500000E-002 [C]  Min=-30.25 [C]\n   *************\n   *************  ** Warning ** CalcDoe2DXCoil: Coil:Cooling:DX:SingleSpeed=\"COIL COOLING DX SINGLE SPEED 9 20KBTU/HR 9.3EER\" - Low condenser dry-bulb temperature error continues...\n   *************  **   ~~~   **   This error occurred 1846 total times;\n   *************  **   ~~~   **   during Warmup 0 times;\n   *************  **   ~~~   **   during Sizing 0 times.\n   *************  **   ~~~   **   Max=-5.000000E-002 [C]  Min=-25.6 [C]\n   *************\n   *************  ** Warning ** CalcDoe2DXCoil: Coil:Cooling:DX:SingleSpeed=\"COIL COOLING DX SINGLE SPEED 6 17KBTU/HR 9.3EER\" - Low condenser dry-bulb temperature error continues...\n   *************  **   ~~~   **   This error occurred 934 total times;\n   *************  **   ~~~   **   during Warmup 0 times;\n   *************  **   ~~~   **   during Sizing 0 times.\n   *************  **   ~~~   **   Max=-2.500000E-002 [C]  Min=-23.575 [C]\n   *************\n   *************  ** Warning ** CalcDoe2DXCoil: Coil:Cooling:DX:SingleSpeed=\"COIL COOLING DX SINGLE SPEED 10 19KBTU/HR 9.3EER\" - Low condenser dry-bulb temperature error continues...\n   *************  **   ~~~   **   This error occurred 720 total times;\n   *************  **   ~~~   **   during Warmup 0 times;\n   *************  **   ~~~   **   during Sizing 0 times.\n   *************  **   ~~~   **   Max=-5.000000E-002 [C]  Min=-21.4 [C]\n   *************\n   *************  ** Warning ** CalcDoe2DXCoil: Coil:Cooling:DX:SingleSpeed=\"COIL COOLING DX SINGLE SPEED 17 6KBTU/HR 14.0SEER\" - Low condenser dry-bulb temperature error continues...\n   *************  **   ~~~   **   This error occurred 105 total times;\n   *************  **   ~~~   **   during Warmup 0 times;\n   *************  **   ~~~   **   during Sizing 0 times.\n   *************  **   ~~~   **   Max=-0.15 [C]  Min=-8.45 [C]\n   *************\n   *************  ** Warning ** CalcDoe2DXCoil: Coil:Cooling:DX:SingleSpeed=\"COIL COOLING DX SINGLE SPEED 17 6KBTU/HR 14.0SEER\" - Full load outlet temperature indicates a possibility of frost/freeze error continues. Outlet air temperature statistics follow:\n   *************  **   ~~~   **   This error occurred 191 total times;\n   *************  **   ~~~   **   during Warmup 0 times;\n   *************  **   ~~~   **   during Sizing 0 times.\n   *************  **   ~~~   **   Max=1.984249  Min=-4.082105\n   *************\n   *************  ** Warning ** CalcDoe2DXCoil: Coil:Cooling:DX:SingleSpeed=\"COIL COOLING DX SINGLE SPEED 3 16KBTU/HR 9.3EER\" - Low condenser dry-bulb temperature error continues...\n   *************  **   ~~~   **   This error occurred 924 total times;\n   *************  **   ~~~   **   during Warmup 0 times;\n   *************  **   ~~~   **   during Sizing 0 times.\n   *************  **   ~~~   **   Max=-2.500000E-002 [C]  Min=-20. [C]\n   *************\n   *************  ** Warning ** CalcDoe2DXCoil: Coil:Cooling:DX:SingleSpeed=\"COIL COOLING DX SINGLE SPEED 2 3KBTU/HR 11.0EER\" - Low condenser dry-bulb temperature error continues...\n   *************  **   ~~~   **   This error occurred 222 total times;\n   *************  **   ~~~   **   during Warmup 0 times;\n   *************  **   ~~~   **   during Sizing 0 times.\n   *************  **   ~~~   **   Max=-2.500000E-002 [C]  Min=-6.7 [C]\n   *************\n   *************  ** Warning ** CalcDoe2DXCoil: Coil:Cooling:DX:SingleSpeed=\"COIL COOLING DX SINGLE SPEED 8 55KBTU/HR 9.3EER\" - Low condenser dry-bulb temperature error continues...\n   *************  **   ~~~   **   This error occurred 14 total times;\n   *************  **   ~~~   **   during Warmup 0 times;\n   *************  **   ~~~   **   during Sizing 0 times.\n   *************  **   ~~~   **   Max=-0.175 [C]  Min=-1.7 [C]\n   *************\n   *************  ** Warning ** CalcDoe2DXCoil: Coil:Cooling:DX:SingleSpeed=\"COIL COOLING DX SINGLE SPEED 12 18KBTU/HR 14.0SEER\" - Full load outlet temperature indicates a possibility of frost/freeze error continues. Outlet air temperature statistics follow:\n   *************  **   ~~~   **   This error occurred 974 total times;\n   *************  **   ~~~   **   during Warmup 0 times;\n   *************  **   ~~~   **   during Sizing 0 times.\n   *************  **   ~~~   **   Max=1.997251  Min=-6.525449\n   *************\n   *************  ** Warning ** CalcDoe2DXCoil: Coil:Cooling:DX:SingleSpeed=\"COIL COOLING DX SINGLE SPEED 18 86KBTU/HR 9.7EER\" - Full load outlet temperature indicates a possibility of frost/freeze error continues. Outlet air temperature statistics follow:\n   *************  **   ~~~   **   This error occurred 149 total times;\n   *************  **   ~~~   **   during Warmup 0 times;\n   *************  **   ~~~   **   during Sizing 0 times.\n   *************  **   ~~~   **   Max=1.981534  Min=-0.3911\n   *************\n   *************  ** Warning ** CalcDoe2DXCoil: Coil:Cooling:DX:SingleSpeed=\"COIL COOLING DX SINGLE SPEED 1 248KBTU/HR 9.7EER\" - Full load outlet temperature indicates a possibility of frost/freeze error continues. Outlet air temperature statistics follow:\n   *************  **   ~~~   **   This error occurred 174 total times;\n   *************  **   ~~~   **   during Warmup 0 times;\n   *************  **   ~~~   **   during Sizing 0 times.\n   *************  **   ~~~   **   Max=1.991296  Min=-1.074193\n   *************\n   *************  ** Warning ** CalcDoe2DXCoil: Coil:Cooling:DX:SingleSpeed=\"COIL COOLING DX SINGLE SPEED 14 101KBTU/HR 9.7EER\" - Full load outlet temperature indicates a possibility of frost/freeze error continues. Outlet air temperature statistics follow:\n   *************  **   ~~~   **   This error occurred 61 total times;\n   *************  **   ~~~   **   during Warmup 0 times;\n   *************  **   ~~~   **   during Sizing 0 times.\n   *************  **   ~~~   **   Max=1.9744  Min=-0.37955\n   *************\n   *************  ** Warning ** CalcDoe2DXCoil: Coil:Cooling:DX:SingleSpeed=\"COIL COOLING DX SINGLE SPEED 15 101KBTU/HR 9.7EER\" - Full load outlet temperature indicates a possibility of frost/freeze error continues. Outlet air temperature statistics follow:\n   *************  **   ~~~   **   This error occurred 63 total times;\n   *************  **   ~~~   **   during Warmup 0 times;\n   *************  **   ~~~   **   during Sizing 0 times.\n   *************  **   ~~~   **   Max=1.9744  Min=-0.987529\n   *************\n   *************\n   ************* ===== Final Error Summary =====\n   ************* The following error categories occurred.  Consider correcting or noting.\n   ************* Nominally Unused Constructions\n   ************* ..The nominally unused constructions warning is provided to alert you to potential conditions that can cause\n   ************* ..extra time during simulation. Each construction is calculated by the algorithm indicated in the HeatBalanceAlgorithm\n   ************* ..object. You may remove the constructions indicated (when you use the DisplayExtraWarnings option).\n   *************\n   ************* EnergyPlus Warmup Error Summary. During Warmup: 0 Warning; 0 Severe Errors.\n   ************* EnergyPlus Sizing Error Summary. During Sizing: 163 Warning; 0 Severe Errors.\n   ************* EnergyPlus Completed Successfully-- 25969 Warning; 0 Severe Errors; Elapsed Time=00hr 04min 26.26sec\n",
   "file_format_version" : "0.0.1",
   "file_paths" : [ "../weather", "../seeds", "../seed" ],
   "hash" : "516F856B",
   "measure_paths" : [ "../measures" ],
   "name" : "LHS Autogenerated 235",
   "osa_id" : "4fef0e0f-5396-4c55-a6e1-2cd6803db3ab",
   "osd_id" : "d6230b31-a148-44a1-891d-4a8c45b45f54",
   "run_directory" : "./run",
   "seed_file" : "seed.osm",
   "started_at" : "20170710T183121Z",
   "steps" : [
      {
         "arguments" : {
            "__SKIP__" : false,
            "building_type" : "LargeHotel",
            "climate_zone" : "NECB HDD Method",
            "epw_file" : "CAN_MB_Brandon.711400_CWEC.epw",
            "template" : "NECB 2011"
         },
         "measure_dir_name" : "create_prototype_building",
         "name" : "create_prototype_building",
         "result" : {
            "completed_at" : "20170710T183308Z",
            "measure_class_name" : "CreatePrototypeBuilding",
            "measure_display_name" : "Create Prototype Building",
            "measure_name" : "create_prototype_building",
            "measure_taxonomy" : "Whole Building.Space Types",
            "measure_type" : "ModelMeasure",
            "measure_uid" : "ae90fsd7-a651-467a-bc8d-29d310b0f937",
            "measure_version_id" : "c6ec5c18-5595-459f-a082-09a19c8c869c",
            "measure_version_modified" : "20170519T182315Z",
            "measure_xml_checksum" : "057E8D9D",
            "started_at" : "20170710T183123Z",
            "stderr" : "",
[...]
GZKWsjBvLKjyB370hmoEhHRZdqTX6p15XKgp7No0qg6FsmQHi7Gs3oked5hmas01ZlVVaI4DL7KcjqLc6sqBVN76MbzclLZyZWvKpVYSlX1slxIVpeVKuGhvfioYxnOqwuPaAlL15tOuJVnfWymu2qp8x+Lcgp17OyIT79+Fr+f/XouLs7OP//88Sfxy9lPPw/E+5Pzk3IOTpNVWz7YKkUTcSCiIIyFP7tN5sFQpCVNImFHwyR5cf1xCY/Lvld+nu3MdlNcl19cQhnPQl9M7TCSp15gxw1bLfnbyVA+++w6/axUZxanaM9ks0socvy42UovT/lnGu5psDe2HDmyZ14spmGQrGFyqym2vtvfHwxOTrY2XHgGOMABDnCAAxzgAAc4wAEOcP6ZOCKa3Sb/BBaOVB8Kx54rolA6oAENaEADGtCABjSgAQ1oQAOafJr79KdZf6O59mYSOMABDnCAAxzgAAc4wAEOcIBTBefpvYGWem/gxYx6b2DXSu+wHR/v7h4cgBSkIAUpSEEKUpCCFKQgBSlIQQrS10HaSUntmCJtp6Tdbqez3wcpSEEKUpCCFKQgBSlIQQpSkIIUpK+DtKtIT0OXIO0cpKSWtbfX7YIUpCAFKUhBClKQghSkIAUpSEEK0tdBuqtIP09mFOl+SnqQHL23IAUpSEEKUpCCFKQgBSlIQQpSkIL0dZD2FOlv0qFI91LSd+8Gg709kIIUpCAFKUhBClKQghSkIAUpSEH6Okj76TcTM0mR9lPSwaDfBylIQQpSkIIUpCAFKUhBClKQghSkr4V0T5F+CKjKgp1eSrq/3+n0eiAFKUhBClKQghSkIAUpSEEKUpCCtDbSJYoT2veNQmcPZuzGnryY2FNpxvIhbmy9D2ZhVIwx/7blO/dW+pEb+J6MUg8FLnZ2xLHjCFuknsS9G09EFNxK4XQLWkZ3Y9OeTqXvNAylbWwXNFgeph3HYcN4MJqi39ZsNE8adco3iuK5Jxd4LdsfToIwaW94cqRBm/kYBX7cupfueBIrH9eB55T3sRibi2nrrR3JZIBicTGPWrvi1AtbXXExnLROxPtP3vA2bvlBmAzBHx/Fx5PBW3VaLG/Frvh08Yc4Gw7VuVvbeYP6Zicahu40/jd5zpsdx7172Uy2oZ0lvoTrHBlDNeMHSSfZri/DK6u9Z4i0644Mx42mnj0/dH0vsbWuvWD49UeDBky8Lq5BxPNp0l713s6NfWcvPs1tqY47O1SzUxwJx72detL05f3F3bhhfPcCZFPsttvpH4Xhpvw6dmwnji//NDz7WnrGoeHIkT3zYjENg5HrSaO5sFw9GIeW2W4ad7Y3k9nfh2pVStokC81gcHJiPDZL+ekw+eky+dll8tNj8tNn8rPH5Gefyc8Bkx+rzeWIa0ZbXFPa4prTFtektrhmtcU1rS2ueW1xTWyLa2Z3uGZ2h22t5prZHa6Z3dGa2SKa3d6uvKa61I4WSkfDDdlHem7IHtJzQ/aPnhsy7vXckFGv54aMeT03ZMTruSHjXc8NvZFp+mGax/Q2pumHaSbTm5imH6a5TG9hmn6YZjO9gWn6YZrP9Pal6YdrXWaaz/Tepemn/Hy+d/1Yf9u6Vh+V90N2j6Yfsns0/ZDdo+mHDHdNP2S4a/ohw13TDxnumn7IcNf0Q+9fuo64ZjS9g+k64prT9B6m64hrVtO7mK4jrnlN72O6jrhmNr2T6TpiW6u5Zja9mek6Kj+zn+5bFL5XmNrm2iv/0Fu8eJhBorN5ie7mJXY3L9HbvER/8xJ7m5fY37zEweYlVnb2TWnUEN9WDQFu1RDhVg0hbtUQ41YNQW7VEOVWDWFu1RDnnRrivFPHPl5DnHdqiPNOtTgvfH1jubRq8X5HBgl6NNgk6MFgk6DHgk2CXnLZJOgVl02CXnDZJOj1lk2CXm7ZJHLuXPNp0Lf++DTou4J8GvQNQz6NGkI8J63i06ghyHPSKj6NGsI8J63i2//otIpPo459vIaNPCet4tOoFueFb8kql1YtXqPFIEGPBpsEPRhsEvRYsEnQSy6bBL3isknQCy6bBL3esknQv41ik8hJq/g06LSKT4NOq/g06LSKT4P+iRafBv27RD4N+ieLfBr0rxn5NOgfOvJp1BDnOWkVn0Yd+3gNG3lOWsWnUW0rL3wZSbm0avG2EgYJejTYJOjBYJOgx4JNgk6r2CTotIpNgk6r2CTotIpNgl5u2SRy0io+DTqt4tOg0yo+DTqt4tOg0yo+DTqt4tOg0yo+DTqt4tOg0yo+jRriPCet4tOoYx+vYSPPSav4NKpt5YU138ulVYui8AwS9GiwSdCDwSZBjwWbBJ1WsUnQaRWbBJ1WsUnQaRWbBL3csknkpFV8GnRaxadBp1V8GnRaxadBp1V8GnRaxadBp1V8GnRaxadBp1V8GjXEeU5axadRxz5ew0aek1bxaVTbygtL65ZLqxa1dxkk6NFgk6AHg02CHgs2CTqtYpOg0yo2CTqtYpOg0yo2CXq5ZZPISav4NOi0ik+DTqv4NOi0ik+DTqv4NOi0ik+DTqv4NOi0ik+DTqv4NGqI85y0ik+jjn28ho08J63i06i2lRdWMCyXVi1KHDJI0KPBJkEPBpsEPRZsEnRaxSZBp1VsEnRaxSZBp1VsEnl1p5gkcoutcWnkVavi0sgrZMWlkVfjiksjr/wVl0ZezTcujbxycFwaeZXiuDTyishxadQQ5zlpFZ9GHft4DRt5TlrFp1G8lX8pU+E1K94sjoQv75cVZNPCsY3obtxMK8AWlopdVoCOZPw2mPlO1Oi1m8Kyek3RVX/r9MqVm31IMJ4KWzvOwI7lOAjnxw9utKig/HT9JcpMJw7OQkeG5zNV0Lh0Q8UxX+X4IO1oFsoFhqrJnPX7hkt8wwwzzDDDDDPMMMMMM8wwwwwzzDDDDDPMMMMMM8wwwwwzzDDDDDPMMMMMM8wwwwwzzDDDDDPMMMMMM8wwwwwzzDDDDDPMMMP8jzLPzeBOhqHryA+2erDWMttrPq+qHo2NVh+NvZChK6Ps8VqjuXyAeOoFsem5vix8RDZ66Tnd4idrIzN99fw08OzYDfwEyohiOW1dy1EQSqPck8+/yLH0ndULWnzW6LeboqueXG6rB5nVH4YnR7ECK3C9dGtejWV84seqfxKJ0cwfpqSNbfFngYsloXxqfVn4LLc63JFoxBM3MqN0VMoJqeNZIzPpvxN7OGn8BazrbYmvHh1P2DO/V9MgcpXDd8nHZa5meSg3L1CFwb0e0hLL9R2p4qFlNTVbL4+bqg1HrvTUfGtkfbqIk3EYzKbSEd9/L/6Vff5gXk3sKHv+XQXY9nPr/EVr0iGmPR6fKg3Tk/44nog3oiP+I4xjzzPE4eoZkecOZaNlbV+2v2wXxts3VxKEonGTXEr7R3GTyGRTNdNVn/2QrDj6A6QONY0zf5c3X8yvci6Ojo4WnVfNY+o1G/Yb3UtdHtehtL9Wafyo2Ub3fNVf2dUdqWmtJkM2U9JCDuaVHUXu2JfOQJWIiC7TnvxSrSuXAz2dRZNG1bFIhvRwMZ7VI8nzDstcpanOrKoSxWHwVZbTWZxbVSmY2kM3npeTyk6ufFWpxFKqqpflQrK6rFQJD+3FRx3LcF5deERLWLredMKtPOtjM91VS53/WJRTqGNnR3z69bP4/ezXc3Fxdv75548/iV/Ofvp5IN6fnJ+Uc3CarNrywVYpmogDEQVhLPzZbTIPhiItaRIJOxomyYvrj0t4XPa98vNsZ7ab4rr84hLKeBb6YmqHkTz1Ajtu2GrJ306G8tln1+lnpTqzOEV7JptdQpHjx81WennKP9NwT4O9seXIkT3zYjENg2QNk1tNsfXd/v5gcHKyteHCM8ABDnCAAxzgAAc4wAEOcIDzz8QR0ew2+SewcKT6UDj2XBGF0gENaEADGtCABjSgAQ1oQAMa0OTT3Kc/zfobzbU3k8ABDnCAAxzgAAc4wAEOcIADnCo4T+8NtNR7Ay9m1HsDu1Z6h+34eHf34ACkIAUpSEEKUpCCFKQgBSlIQQpSkL4O0k5KascUaTsl7XY7nf0+SEEKUpCCFKQgBSlIQQpSkIIUpCB9HaRdRXoaugRp5yAltay9vW4XpCAFKUhBClKQghSkIAUpSEEKUpC+DtJdRfp5MqNI91PSg+TovQUpSEEKUpCCFKQgBSlIQQpSkIIUpK+DtKdIf5MORbqXkr57Nxjs7YEUpCAFKUhBClKQghSkIAUpSEEK0tdB2k+/mZhJirSfkg4G/T5IQQpSkIIUpCAFKUhBClKQghSkIH0tpHuK9ENAVRbs9FLS/f1Op9cDKUhBClKQghSkIAUpSEEKUpCCFKS1kS5RnNC+bxQ6ezBjN/bkxcSeSjOWD3Fj630wC6NijPm3Ld+5t9KP3MD3ZJR6KHCxsyOOHUfYIvUk7t14IqLgVgqnW9Ayuhub9nQqfadhKG1ju6DB8jDtOA4bxoPRFP22ZqN50qhTvlEUzz25wGvZ/nAShEl7w5MjDdrMxyjw49a9dMeTWPm4DjynvI/F2FxMW4MgDF0nCK9OvfCqLy7mUasrkr+3dsXFcNI6Ee8/ecPbuBUFs2Qg/vgoPp4M3qrTYnkruuLTxR/ibDhU525t5w3tm51oGLrT+N/kOW92HPfuZTPZhnaW+BKuc2QM1bwfJF1lu74Mr6z2viHSDjwyHDeaevb80PW9xNa69oLh1x8NGjDxurgGEc+nSXvVhzs39p29+DS3pTru7FDNUXEkHPd26knTl/cXd+OG8d0LkE2x226nfxQGnfLr2LGdOL780/Dsa+kZh4YjR/bMi8U0DEauJ43mwnL1YBxaZrtp3NneTGZ/H6q1KWmTLDeDwcmJ8dgs5afD5KfL5GeXyU+PyU+fyc8ek599Jj8HTH6sNpcjrhltcU1pi2tOW1yT2uKa1RbXtLa45rXFNbEtrpnd4ZrZHba1mmtmd7hmdkdrZotodnu78rLqUjtaKB0NN2Qf6bkhe0jPDdk/em7IuNdzQ0a9nhsy5vXckBGv54aMdz039Eam6YdpHtPbmKYfpplMb2KafpjmMr2Fafphms30Bqbph2k+09uXph+udZlpPtN7l6af8vP53vVj/W3rWn1U3g/ZPZp+yO7R9EN2j6YfMtw1/ZDhrumHDHdNP2S4a/ohw13TD71/6TrimtH0DqbriGtO03uYriOuWU3vYrqOuOY1vY/pOuKa2fROpuuIba3mmtn0ZqbrqPzMfrp7Ufh2YWqba6/8Q2/x+mEGCfpft2wS3c1fxe7mJXqbl+hvXmJv8xL7m5c42LzEys6+KY0a4jvni1k+DfqbLT4N+ksvPg36m14+DfpLYD4N+vthPg36q2M+DfpbZb79j/7CmU+D/i6aT6OGOM/5BptPo9pWXvgSx3K3cRdveWSQoEeDTYJOq9gk6LFgk6DTKjYJOq1ik6DTKjYJOq1ik6DTKjaJnLSKT6OG+M5Jq/g06OWWT4NOq/g06LSKT4NOq/g06LSKT4NOq/g06LSKb/+j0yo+jTr28RriPCet4tOoFueF78oql1YtXqbFINEhdw82CTqtYpOg0yo2CTqtYpOg0yo2CTqtYpOg0yo2CTqtYpPISav4NGqI75y0ik+DXm75NOjllk+DTqv4NOi0ik+DTqv4NOi0ik+DTqv49j86reLTqGMfryHOc9IqPo1qcV74SpJyadXinSUMEnRaxSZBp1VsEnRaxSZBp1VsEnRaxSZBp1VsEnRaxSZBp1VsEjlpFZ9GDfGdk1bxadDLLZ8GvdzyadBpFZ8GnVbxadBpFZ8GnVbxadBpFd/+R6dVfBp17OM1xHlOWsWnUS3OCyu/l0urFqXhGSTotIpNgk6r2CTotIpNgk6r2CTotIpNgk6r2CTotIpNgk6r2CRy0io+jRriOyet4tOgl1s+DXq55dOg0yo+DTqt4tOg0yo+DTqt4tOg0yq+/Y9Oq/g06tjHa4jznLSKT6NanBcW2C2XVi0q8DJI0GkVmwSdVrFJ0GkVmwSdVrFJ0GkVmwSdVrFJ0GkVmwSdVrFJ5KRVfBo1xHdOWsWnQS+3fBr0csunQadVfBp0WsWnQadVfBp0WsWnQadVfPsfnVbxadSxj9cQ5zlpFZ9GtTgvrGNYLq1aFDpkkKDTKjYJOq1ik6DTKjYJOq1ik6DTKjYJOq1ik6DTKjYJOq1ik8hJq/g0aojv3BJtXBp5Na64NPLKX3Fp5NV849LIKwfHpZFXKY5LI6+IHJdGXn05rv0vr/Qcl0Yd+3gNcZ5by45LozjOv5Sp8JqVcBZHwpf3ywqyaeHYRnQ3bqYVYAtLxS7rQEcyfhvMfCdq9NpNYVm9puiqv3V65crNPiQYT+WtHWdgx3IchPPjBzda1FF+uv4SxaYTB2ehI8PzmSprXLqh4pivcnyQdjQL5QJDVWbO+n3Dhb5hhhlmmGGGGWaYYYYZZphhhhlmmGGGGWaYYYYZZphhhhlmmGGGGWaYYYYZZphhhhlmmGGGGWaYYYYZZphhhhlmmGGGGWaYYf5HmedmcCfD0HXkB1s9WGuZ7TWfV1WPxkarj8ZeyNCVUfZ4rdFcPkA89YLY9FxfFj4iG730nG7xk7WRmb56fhp4duwGfgJlRLGctq7lKAilUe7J51/kWPrO6gUtPmv0203RVU8ut9WDzOoPw5OjWIEVuF66Na/GMj7xY9U/icRo5g9T0sa2+LPAxZJQPrW+LHyWWx3uSDTiiRuZUToq5YTU8ayRmfTfiT2cNP4C1vW2xFePjifsmd+raRC5yuG75OMyV7M8lJsXqMLgXg9pieX6jlTx0LKamq2Xx03VhiNXemq+NbI+XcTJOAxmU+mI778X/8o+fzCvJnaUPf+uAmz7uXX+ojXpENMej0+VhulJfxxPxBvREf8RxrHnGeJw9YzIc4ey0bK2L9tftgvj7ZsrCULRuEkupf2juElksqma6arPfkhWHP0BUoeaxpm/y5sv5lc5F0dHR4vOq+Yx9ZoN+43upS6P61DaX6s0ftRso3u+6q/s6o7UtFaTIZspaSEH88qOInfsS2egSkREl2lPfqnWlcuBns6iSaPqWCRDergYz+qR5HmHZa7SVGdWVYniMPgqy+kszq2qFEztoRvPy0llJ1e+qlRiKVXVy3IhWV1WqoSH9uKjjmU4ry48oiUsXW864Vae9bGZ7qqlzn8syinUsbMjPv36Wfx+9uu5uDg7//zzx5/EL2c//TwQ70/OT8o5OE1WbflgqxRNxIGIgjAW/uw2mQdDkZY0iYQdDZPkxfXHJTwu+175ebYz201xXX5xCWU8C30xtcNInnqBHTdsteRvJ0P57LPr9LNSnVmcoj2TzS6hyPHjZiu9POWfabinwd7YcuTInnmxmIZBsobJrabY+m5/fzA4OdnacOEZ4AAHOMABDnCAAxzgAAc4wPln4ohodpv8E1g4Un0oHHuuiELpgAY0oAENaEADGtCABjSgAQ1o8mnu059m/Y3m2ptJ4AAHOMABDnCAAxzgAAc4wAFOFZyn9wZa6r2BFzPqvYFdK73Ddny8u3twAFKQghSkIAUpSEEKUpCCFKQgBSlIXwdpJyW1Y4q0nZJ2u53Ofh+kIAUpSEEKUpCCFKQgBSlIQQpSkL4O0q4iPQ1dgrRzkJJa1t5etwtSkIIUpCAFKUhBClKQghSkIAUpSF8H6a4i/TyZUaT7KelBcvTeghSkIAUpSEEKUpCCFKQgBSlIQQrS10HaU6S/SYci3UtJ370bDPb2QApSkIIUpCAFKUhBClKQghSkIAXp6yDtp99MzCRF2k9JB4N+H6QgBSlIQQpSkIIUpCAFKUhBClKQvhbSPUX6IaAqC3Z6Ken+fqfT64EUpCAFKUhBClKQghSkIAUpSEEK0tpIlyhOaN83Cp09mLEbe/JiYk+lGcuHuLH1PpiFUTHG/NuW79xb6Udu4HsySj0UuNjZEceOI2yRehL3bjwRUXArhdMtaBndjU17OpW+0zCUtrFd0GB5mHYchw3jwWiKfluz0Txp1CnfKIrnnlzgtWx/OAnCpL3hyZEGbeZjFPhx616640msfFwHnlPex2JsLqatd67v+uOrUy+86ouLedTqiuTvrV1xMZy03or3n7zhbdzygzAZhj8+io8ng7fqtFjeiq74dPGHOBsO1blb23kD+2YnGobuNP43ec6bHce9e9lMtqGdJb6E6xwZQzXrB0lH2a4vwyurfWCItPuODMeNpp49P3R9L7G1rr1g+PVHgwZMvC6uQcTzadJe9eDOjX1nLz7NbamOOztUM1QcCce9nXrS9OX9xd24YXz3AmRT7Lbb6R+FIaf8OnZsJ44v/zQ8+1p6xqHhyJE982IxDYOR60mjubBcPRiHltluGne2N5PZ34dqZUraJIvNYHByYjw2S/npMPnpMvnZZfLTY/LTZ/Kzx+Rnn8nPAZMfq83liGtGW1xT2uKa0xbXpLa4ZrXFNa0trnltcU1si2tmd7hmdodtreaa2R2umd3Rmtkimt3erryqutSOFkpHww3ZR3puyB7Sc0P2j54bMu713JBRr+eGjHk9N2TE67kh413PDb2Rafphmsf0Nqbph2km05uYph+muUxvYZp+mGYzvYFp+mGaz/T2pemHa11mms/03qXpp/x8vnf9WH/bulYflfdDdo+mH7J7NP2Q3aPphwx3TT9kuGv6IcNd0w8Z7pp+yHDX9EPvX7qOuGY0vYPpOuKa0/QepuuIa1bTu5iuI655Te9juo64Zja9k+k6YluruWY2vZnpOio/s5/uXRS+W5ja5tor/9BbvHyYQYL+1y2bRHfzV7G7eYne5iX6m5fY27zE/uYlDjYvsbKzb0qjhvjO+WKWT4P+ZotPg/7Si0+D/qaXT4P+EphPg/5+mE+D/uqYT4P+Vplv/6O/cObToL+L5tOoIc5zvsHm06i2lRe+wrHcbdzFOx4ZJOjRYJOg0yo2CXos2CTotIpNgk6r2CTotIpNgk6r2CTotIpNIiet4tOoIb5z0io+DXq55dOg0yo+DTqt4tOg0yo+DTqt4tOg0yo+DTqt4tv/6LSKT6OOfbyGOM9Jq/g0qsV54ZuyyqVVi1dpMUh0yN2DTYJOq9gk6LSKTYJOq9gk6LSKTYJOq9gk6LSKTYJOq9gkctIqPo0a4jsnreLToJdbPg16ueXToNMqPg06reLToNMqPg06reLToNMqvv2PTqv4NOrYx2uI85y0ik+jWpwXvpCkXFq1eGMJgwSdVrFJ0GkVmwSdVrFJ0GkVmwSdVrFJ0GkVmwSdVrFJ0GkVm0ROWsWnUUN856RVfBr0csunQS+3fBp0WsWnQadVfBp0WsWnQadVfBp0WsW3/9FpFZ9GHft4DXGek1bxaVSL88K67+XSqkVheAYJOq1ik6DTKjYJOq1ik6DTKjYJOq1ik6DTKjYJOq1ik6DTKjaJnLSKT6OG+M5Jq/g06OWWT4Nebvk06LSKT4NOq/g06LSKT4NOq/g06LSKb/+j0yo+jTr28RriPCet4tOoFueF5XXLpVWL+rsMEnRaxSZBp1VsEnRaxSZBp1VsEnRaxSZBp1VsEnRaxSZBp1VsEjlpFZ9GDfGdk1bxadDLLZ8GvdzyadBpFZ8GnVbxadBpFZ8GnVbxadBpFd/+R6dVfBp17OM1xHlOWsWnUS3OC6sYlkurFmUOGSTotIpNgk6r2CTotIpNgk6r2CTotIpNgk6r2CTotIpNgk6r2CRy0io+jRriO7dEG5dGXo0rLo288ldcGnk137g08srBcWnkVYrj0sgrIselkVdfjmv/yys9x6VRxz5eQ5zn1rLj0iiO8y9lKrxmBZzFkfDl/bKCbFo4thHdjZtpBdjCUrHLKtCRjN8GM9+JGr12U1hWrym66m+dXrlysw8JxlNxa8cZ2LEcB+H8+MGNFlWUn66/RKnpxMFZ6MjwfKaKGpduqDjmqxwfpB3NQrnAUHWZs37fcJlvmGGGGWaYYYYZZphhhhlmmGGGGWaYYYYZZphhhhlmmGGGGWaYYYYZZphhhhlmmGGGGWaYYYYZZphhhhlmmGGGGWaYYYYZZpj/Uea5GdzJMHQd+cFWD9ZaZnvN51XVo7HR6qOxFzJ0ZZQ9Xms0lw8QT70gNj3Xl4WPyEYvPadb/GRtZKavnp8Gnh27gZ9AGVEsp61rOQpCaZR78vkXOZa+s3pBi88a/XZTdNWTy231ILP6w/DkKFZgBa6Xbs2rsYxP/Fj1TyIxmvnDlLSxLf4scLEklE+tLwuf5VaHOxKNeOJGZpSOSjkhdTxrZCb9d2IPJ42/gHW9LfHVo+MJe+b3ahpErnL4Lvm4zNUsD+XmBaowuNdDWmK5viNVPLSspmbr5XFTteHIlZ6ab42sTxdxMg6D2VQ64vvvxb+yzx/Mq4kdZc+/qwDbfm6dv2hNOsS0x+NTpWF60h/HE/FGdMR/hHHseYY4XD0j8tyhbLSs7cv2l+3CePvmSoJQNG6SS2n/KG4SmWyqZrrqsx+SFUd/gNShpnHm7/Lmi/lVzsXR0dGi86p5TL1mw36je6nL4zqU9tcqjR812+ier/oru7ojNa3VZMhmSlrIwbyyo8gd+9IZqBIR0WXak1+qdeVyoKezaNKoOhbJkB4uxrN6JHneYZmrNNWZVVWiOAy+ynI6i3OrKgVTe+jG83JS2cmVryqVWEpV9bJcSFaXlSrhob34qGMZzqsLj2gJS9ebTriVZ31sprtqqfMfi3IKdezsiE+/fha/n/16Li7Ozj///PEn8cvZTz8PxPuT85NyDk6TVVs+2CpFE3EgoiCMhT+7TebBUKQlTSJhR8MkeXH9cQmPy75Xfp7tzHZTXJdfXEIZz0JfTO0wkqdeYMcNWy3528lQPvvsOv2sVGcWp2jPZLNLKHL8uNlKL0/5ZxruabA3thw5smdeLKZhkKxhcqsptr7b3x8MTk62Nlx4BjjAAQ5wgAMc4AAHOMABDnD+mTgimt0m/wQWjlQfCseeK6JQOqABDWhAAxrQgAY0oAENaEADmnya+/SnWX+jufZmEjjAAQ5wgAMc4AAHOMABDnCAUwXn6b2Blnpv4MWMem9g10rvsB0f7+4eHIAUpCAFKUhBClKQghSkIAUpSEEK0tdB2klJ7Zgibaek3W6ns98HKUhBClKQghSkIAUpSEEKUpCCFKSvg7SrSE9DlyDtHKSklrW31+2CFKQgBSlIQQpSkIIUpCAFKUhBCtLXQbqrSD9PZhTpfkp6kBy9tyAFKUhBClKQghSkIAUpSEEKUpCC9HWQ9hTpb9KhSPdS0nfvBoO9PZCCFKQgBSlIQQpSkIIUpCAFKUhB+jpI++k3EzNJkfZT0sGg3wcpSEEKUpCCFKQgBSlIQQpSkIIUpK+FdE+RfgioyoKdXkq6v9/p9HogBSlIQQpSkIIUpCAFKUhBClKQgrQ20iWKE9r3jUJnD2bsxp68mNhTacbyIW5svQ9mYVSMMf+25Tv3VvqRG/iejFIPBS52dsSx4whbpJ7EvRtPRBTcSuF0C1pGd2PTnk6l7zQMpW1sFzRYHqYdx2HDeDCaot/WbDRPGnXKN4riuScXeC3bH06CMGlveHKkQZv5GAV+3LqX7ngSKx/XgeeU97EYm4tp63+78XAi/atTL7zqi4t51OqK5O+tXXExnLTeivefvOFt3JJ2FIs/PoqPJ4O36qxY3oqu+HTxhzgbDtWpW9t5A/tmJxqG7jT+N3nOmx3HvXvZTLahnSW+hOscGUM16wdJR9muL8Mry2obIu2+I8Nxo6lnzw9d30tsrWsvGH790aABE6+LaxDxfJq0Vz24c2Pf2YtPc1uq484O1QwVR8Jxb6eeNH15f3E3bhjfvQDZFLvtdvpHYcgpv44d24njyz8Nz76WnnFoOHJkz7xYTMNg5HrSaC4sVw/GoWW2m8ad7c2kcdjrmd2DZ0e31zSGaqFKXCRrz2BwcmI8Nku57WzGbXczbnc347a3Gbf9zbjd24zb/c24PdiMW6u9Ib8bijNrQ4FmbSjSrA2FmrWhWLM2FGzWhqLN2lC4WRuKt86G4q2zqX1tQ/HW2VC8ddaJNxHNbm9XXgleJXMIpaPhtWz/6nkt27t6Xsv2rZ7XsiuZntey65ie17KrmJ7XsmuYnteyK5ie19IJg6bbzURX6XRB0+1m4qt0sqDpdjMRVjpV0HS7mRgrnShout1MlJVOEzTdbmgP20yUlc4RNN1WjrJ714/XTg+u1Rnl3ZbtWk23ZbtW023ZrtV0W3YB03RbdgHTdFt2AdN0W3YB03RbdgHTdFs6T9D1u6E4K50p6PrdUKSVzhV0/W4o1kpnC7p+NxRtpfMFXb8birfSGYOu303taxuKt9JJg65fvXj7UubGRXZfUhwJX94vb4yk90Ma0d24md7YKLwDsry5Gcn4bTDznajRazeFZfWaoqv+1umVu4vykGA83bN1nIEdy3EQzo8f3Ghxc/CpL0rcQU0cnIWODM9n6l5d6YaKY77K8UHa0SyUCwx1uzEbg3XvCac3pFalLmToyijDTZSyAZl6QWyqu2SFktFL111MGpnpxJsGnh27gZ9AGVEsp61rOQpCaZSbSb/IsfSd1QtafNboJ7Ogq2aCuqlmqT+yW66Fd6OXbs2rsYxP/Fj1TyIxmvnDlLSxLf4scc9VEcqn1peFsaEOdyQa8cSNknmt2pUTUsezRmbSfyf2cNL4C1jX2xI/u8eY+b2aBpGrHL5LPi5zNctDuXmBKgzu9ZCWWK7vSBW4Laup2Xp53FRtOHKlp+ZbI+vTRZyMw2A2lY74/nvxr+zzB/NqYkfZeqICbPu5df6iNekQ0x6PT5WG6Ul/HE/EG9ER/xHGsecZ4nD1jMhzh7LRsrYv21+2C+PtmysJQtG4SS6l/aO4SWSyqZrpqs9+OBKW/gCpQ03jzN/lzRfzq0yWt6OjRedV85h6zYb9RvdSl8d1KO2vVRo/arbRPV/1V3Z1R2paq8mQzZR0YzSvFr8nkk76i6LoMu3JL9W6cjnQ01k0aVQdi2RIDxfjWT2SPO+wzFWa6syqKlEcBl9lOZ3FuVWVgqk9dON5Oans5MpXlUospap6WS4kq8tKlfDQXnzUsQzn1YVHtISl600n3MqzPjbTXbXU+Y9FOYU6dnbEp18/i9/Pfj0XF2fnn3/++JP45eynnwfi/cn5STkHp8mqLR9slaKJOBBRkCTS/uw2mQdDkaaIkbCjYZK8uP64hMdl3ys/z3Zmuymuyy8uoYxnoS+mdhjJUy+w44atlvztZCiffXadflaqM4tTtGey2SUUOX78L/zu8293bLMfd6obsP+Vn6ECBzjAAQ5wgAMc4AAHOMABzqvH+faXL4oolA5oQAMa0IAGNKABDWhAAxrQgCaf5pvfBCoa9RM/4AAHOMABDnCAAxzgAAc4wAHOf7Ha4md5O5WhHc9CKRqn26i3+D+r3uJsOvXm4tgNhRqoV1Iz0XoNNROt2mompn+vWpyJyU+Xyc8uk58ek58+k589Jj/7TH4OmPys1BRYyxHXjLa4prTFNactrkltcc1qi2taW1zz2uKa2BbXzO5wzewO21rNNbM7XDO7ozWzy9fyW3FVvXjfGm7IHqpenm8NN2TcVy/At4YbMuarl9hbww0Z72sU0VvHD9M8prexNerireOHaSrTe9gape7W8cM0m+kNbI3qdeusg0zzmd691ihIt44fpvlMb13Va8ytuFmjqNw6fsjuWaNs3Dp+yHBfozDcOn7IcF+j9Ns6fshwX6e421qOuGY0vYOtU69tLUdck5rexNYpwbaWI655Te9j61RVW2tl5JrZ9Fa2TqG0tRxxzWx6N/vG0dP7niz1vqeLGfW+p65V7vvG4+Pd3YMDBgn6X7dsEvS/e9kk6H8Rs0nQ3wKxSdDfD7FJ0N8csUnQ3ymxSdDfNrFJ5HzFyqdRQ3znfDHLp1FDhOd8ncunUUOM53wJzKdRQ5TnfHXMp1FDnOd84cynUcc+XkOc53yDzadRLc47qYYdUxrtcmlVt9vp7PcZJOjRYJOgB4NNgh4LNgl6yWWToFdcNgl6wWWToNdbNgl6uWWTyEmr+DRqiO+ctIpPo4YIz0mr+DRqiPGctIpPo4Yoz0mr+DRqiPOctIpPo459vIY4z0mr+DSqxXlXaZyGLvV28oNyaZVl7e11uwwS9GiwSdCDwSZBjwWbBL3ksknQKy6bBL3gsknQ6y2bBL3csknkpFV8GjXEd05axadRQ4TnpFV8GjXEeE5axadRQ5TnpFV8GjXEeU5axadRxz5eQ5znpFV8GtXifFdpfJ7MKI39cmmVeuNS7y2DBD0abBL0YLBJ0GPBJkEvuWwS9IrLJkEvuGwS9HrLJkEvt2wSOWkVn0YN8Z2TVvFp1BDhOWkVn0YNMZ6TVvFp1BDlOWkVn0YNcZ6TVvFp1LGP1xDnOWkVn0a1OO8pjd+kQ2nslUur3r0bDPb2GCTo0WCToAeDTYIeCzYJesllk6BXXDYJesFlk6DXWzYJerllk8hJq/g0aojvnLSKT6OGCM9Jq/g0aojxnLSKT6OGKM9Jq/g0aojznLSKT6OOfbyGOM9Jq/g0qsV5P03dZpLS6JdLqwaDfp9Fgh4NNgl6MNgk6LFgk6CXXDYJesVlk6AXXDYJer1lk6CXWzaJnLSKT6OG+M5Jq/g0aojwnLSKT6OGGM9Jq/g0aojynLSKT6OGOM9Jq/g06tjHa4jznLSKT6NanO8pjQ8B9bP4Tq9cWrW/3+n0egwSeXVumCTyKuAwSeTVxmGSyKsHxSSRVymKSSKvhhSTRF51KSaJvLpTTBK5xda4NGqI79wSbVwaNUR4bmE3Lo0aYjy3HByXRg1RnltEjkujhjjPLT3HpVHHPl5DnOfWsuPSKI7zL2UqvGZlmMWR8OX9soJsWji2Ed2Nm2kF2MJSsctazpGM3wYz34kavXZTWFavKbrqb51euXKzDwnGUx1qxxnYsRwH4fz4wY0WlZCfrr9EwejEwVnoyPB8pgoTl26oOOarHB+kHc1CucBQtZWzft9wRW6YYYYZZphhhhlmmGGGGWaYYYYZZphhhhlmmGGGGWaYYYYZZphhhhlmmGGGGWaYYYYZZphhhhlmmGGGGWaYYYYZZphhhhlmmP9R5rkZ3MkwdB35wVYP1lpme83nVdWjsdHqo7EXMnRllD1eazSXDxBPvSA2PdeXhY/IRi89p1v8ZG1kpq+enwaeHbuBn0AZUSynrWs5CkJplHvy+Rc5lr6zekGLzxr9dlN01ZPLbfUgs/rD8OQoVmAFrpduzauxjE/8WPVPIjGa+cOUtLEt/ixwsSSUT60vC5/lVoc7Eo144kZmlI5KOSF1PGtkJv13Yg8njb+Adb0t8dWj4wl75vdqGkSucvgu+bjM1SwP5eYFqjC410NaYrm+I1U8tKymZuvlcVO14ciVnppvjaxPF3EyDoPZVDri++/Fv7LPH8yriR1lz7+rANt+bp2/aE06xLTH41OlYXrSH8cT8UZ0xH+Ecex5hjhcPSPy3KFstKzty/aX7cJ4++ZKglA0bpJLaf8obhKZbKpmuuqzH5IVR3+A1KGmcebv8uaL+VXOxdHR0aLzqnlMvWbDfqN7qcvjOpT21yqNHzXb6J6v+iu7uiM1rdVkyGZKWsjBvLKjyB370hmoEhHRZdqTX6p15XKgp7No0qg6FsmQHi7Gs3oked5hmas01ZlVVaI4DL7KcjqLc6sqBVN76MbzclLZyZWvKpVYSlX1slxIVpeVKuGhvfioYxnOqwuPaAlL15tOuJVnfWymu2qp8x+Lcgp17OyIT79+Fr+f/XouLs7OP//88Sfxy9lPPw/E+5Pzk3IOTpNVWz7YKkUTcSCiIIyFP7tN5sFQpCVNImFHwyR5cf1xCY/Lvld+nu3MdlNcl19cQhnPQl9M7TCSp15gxw1bLfnbyVA+++w6/axUZxanaM9ks0socvy42UovT/lnGu5psDe2HDmyZ14spmGQrGFyqym2vtvfHwxOTrY2XHgGOMABDnCAAxzgAAc4wAEOcP6ZOCKa3Sb/BBaOVB8Kx54rolA6oAENaEADGtCABjSgAQ1oQAOafJr79KdZf6O59mYSOMABDnCAAxzgAAc4wAEOcIBTBefpvYGWem/gxYx6b2DXSu+wHR/v7h4cgBSkIAUpSEEKUpCCFKQgBSlIQQrS10HaSUntmCJtp6Tdbqez3wcpSEEKUpCCFKQgBSlIQQpSkIIUpK+DtKtIT0OXIO0cpKSWtbfX7YIUpCAFKUhBClKQghSkIAUpSEEK0tdBuqtIP09mFOl+SnqQHL23IAUpSEEKUpCCFKQgBSlIQQpSkIL0dZD2FOlv0qFI91LSd+8Gg709kIIUpCAFKUhBClKQghSkIAUpSEH6Okj76TcTM0mR9lPSwaDfBylIQQpSkIIUpCAFKUhBClKQghSkr4V0T5F+CKjKgp1eSrq/3+n0eiAFKUhBClKQghSkIAUpSEEKUpCCtDbSJYoT2veNQmcPZuzGnryY2FNpxvIhbmy9D2ZhVIwx/7blO/dW+pEb+J6MUg8FLnZ2xLHjCFuknsS9G09EFNxK4XQLWkZ3Y9OeTqXvNAylbWwXNFgeph3HYcN4MJqi39ZsNE8adco3iuK5Jxd4LdsfToIwaW94cqRBm/kYBX7cupfueBIrH9eB55T3sRib/3P8fxYdfC4n0o7F2XAoLoaTre28QXqzEw1Ddxr/mzznzY7j3r1sJtvQzhJfwnWOjKGawYPkom3Xl+GVZXUMkXbFkeG40dSz54eu7yW21rUXDL/+aNCAidfFNYh4Pk3aq97YubHv7MWnuS3VcWeHaraJI+G4t1NPmr68v7gbN4zvXoBsit12O/2jMHyUX8eO7cTx5Z+GZ19Lzzg0HDmyZ14spmEwcj1pNBeWqwfj0DLbTePO9mbSOOwfmAfPjv2DpjFUa07iIVlGBoOTE+OxWcprZyNeuxvxursRr72NeO1vxOveRrzub8TrwUa8Wu3NuN1MdFmbCS9rM/FlbSbArM1EmLWZELM2E2PWZoLM2kyUdTYTZZ0N7WGbibLOZqKss0aUiWh2e7vyGu8KGUIoHQ2nJftWz2nJntVzWrJf9ZyWXLv0nJZcufSclly39JyWXLX0nJZcs/Sclk0MNL1uJKbKpgWaXjcSVWWTAk2vG4mrsimBpteNRFbZhEDT60Ziq2w6oOl1M/vVRmKrbC6g6bVqbN27frxuGnCtTijvtWS3anot2a2aXkt2q6bXkkuWpteSS5am15JLlqbXkkuWpteSS5am17L5gK7bzURX2YxA1+1m4qtsTqDrdjMRVjYr0HW7mRgrmxfout1MlJXNDHTdbmgP20yUlU0OdN1qRdmXMjccsnuD4kj48n55QyO9j9GI7sbN9IZE4Z2L5Q3GSMZvg5nvRI1euyksq9cUXfW3Tq/c3Y+HBOPpvqnjDOxYjoNwfvzgRosbdE9dUeIuZuLgLHRkeD5T98tKN1Qc81WOD9KOZqFcYKhbftkQrHtfNr2RtCp1IUNXRhluopQNyNQLYlPd3SqUjF667mLSyEzn3TTw7NgN/ATKiGI5bV3LURBKo9xM+kWOpe+sXtDis0Y/mQVdNRPUzTBL/ZHd9iy8I7x0a16NZXzix6p/EonRzB+mpI1t8WeJ+56KUD61viyMDXW4I9GIJ26UzGvVrpyQOp41MpP+O7GHk8ZfwLrelvjZvcHM79U0iFzl8F3ycZmrWR7KzQtUYXCvh7TEcn1HqsBtWU3N1svjpmrDkSs9Nd8aWZ8u4mQcBrOpdMT334t/ZZ8/mFcTO8rWExVg28+t8xetSYeY9nh8qjRMT/rjeCLeiI74jzCOPc8Qh6tnRJ47lI2WtX3Z/rJdGG/fXEkQisZNcintH8VNIpNN1UxXffbDkbD0B0gdahpn/i5vvphfZbK8HR0tOq+ax9RrNuw3upe6PK5DaX+t0vhRs43u+aq/sqs7UtNaTYZspqQbo3m1+E2PdNJf9USXaU9+qdaVy4GezqJJo+pYJEN6uBjP6pHkeYdlrtJUZ1ZVieIw+CrL6SzOraoUTO2hG8/LSWUnV76qVGIpVdXLciFZXVaqhIf24qOOZTivLjyiJSxdbzrhVp71sZnuqqXOfyzKKdSxsyM+/fpZ/H7267m4ODv//PPHn8QvZz/9PBDvT85Pyjk4TVZt+WCrFE3EgYiCJJH2Z7fJPBiKNEWMhB0Nk+TF9cclPC77Xvl5tjPbTXFdfnEJZTwLfTG1w0ieeoEdN2y15G8nQ/nss+v0s1KdWZyiPZPNLqHI8eN/4beXf7sBm/3AUt1Q/a/8FBQ4wAEOcIADHOAABzjAAQ5wXj3Otz9wUUShdEADGtCABjSgAQ1oQAMa0IAGNPk03/wkUNGon/gBBzjAAQ5wgAMc4AAHOMABDnD+ixUPP8vbqQzteBZK0TjdRs3D/1E1D3+z1Yx7L9P/HN9eu9KPhRoyVflQOrOk/1tir336Soogdl9DEcRubUUQ00dPqxZhYvLTZfKzy+Snx+Snz+Rnj8nPPpOfAyY/K9UF1nLENaMtriltcc1pi2tSW1yz2uKa1hbXvLa4JrbFNbM7XDO7w7ZWc83sDtfM7mjN7PJF+1ZcVS/Tt4Ybsoeql+Jbww0Z99XL7a3hhoz56iX11nBDxvsaZfPW8cM0j+ltbI1ieOv4YZrK9B62Rom7dfwwzWZ6A1ujcN066yDTfKZ3rzXK0a3jh2k+01tX9SJzK27WKCu3jh+ye9YoHbeOHzLc1ygPt44fMtzXKAG3jh8y3Ncp87aWI64ZTe9g6xRvW8sR16SmN7F1SrKt5YhrXtP72DqF1tZaGblmNr2VrVM+bS1HXDOb3s1QFO1VFEWDGWaYYYYZZphhhhlmmGGGGWaYYYb5f5J5bgZ3MgxdR36w1RdVltlGUfxnV4Ki+E8HiuJrHSiKj6L4GgeK4v/9QFH8vx8oiq95oCg+iuK/eKAoPnCAAxzgAAc4wAEOcIADHOAA5zWUlAQNaEADGtCABjSgAQ1oQAOa10Pz/00pS+AABzjAAQ5wgAMc4AAHOMCprvdfKIr/zr2VfuQGviejCCXx/2eVxA/Cr+JkNHKHrvSH86dC+PWWwM/O/pvl+f8v/77475P37C9P/7kOnLn67yS+9f79v/4fV6eGOA=="
               },
               {
                  "name" : "annual_peak_electric_demand",
                  "units" : "kW",
                  "value" : 998.88931000000002
               },
               {
                  "name" : "first_year_capital_cost",
                  "units" : "$",
                  "value" : 0
               },
               {
                  "name" : "annual_utility_cost",
                  "units" : "$",
                  "value" : 0
               },
               {
                  "name" : "total_lifecycle_cost",
                  "units" : "$",
                  "value" : 0
               }
            ],
            "step_warnings" : [ "A table in Annual Overview section returned false and was skipped." ]
         }
      }
   ],
   "updated_at" : "20170710T183832Z",
   "weather_file" : "USA_CO_Denver.Intl.AP.725650_TMY3.epw"
}
