{
   "completed_at" : "20170710T184152Z",
   "completed_status" : "Success",
   "created_at" : "2017-07-10 18:23:33 +0000",
   "current_step" : 5,
   "description" : "",
   "eplusout_err" : "Program Version,EnergyPlus, Version 8.7.0-78a111df4a, YMD=2017.07.10 18:30,IDD_Version 8.7.0\n   ************* IDF Context for following error/warning message:\n   ************* Note -- lines truncated at 300 characters, if necessary...\n   *************      5 Building,\n   ************* indicated Name=NECB 2011-Hospital-NECB HDD Method-CAN_PQ_Lake.Eon.714210_CWEC.epw created: 2017-07-10 18:23:45 +0000\n   ************* Only last 1 lines before error line shown.....\n   *************      6   NECB 2011-Hospital-NECB HDD Method-CAN_PQ_Lake.Eon.714210_CWEC.epw created: 2017-07-10 18:23:45 +0000, !- Name\n   ** Warning ** IP: IDF line~6 Alpha Argument length exceeds maximum, will be truncated=  NECB 2011-Hospital-NECB HDD Method-CAN_PQ_Lake.Eon.714210_CWEC.epw created: 2017-07-10 18:23:45 +000\n   **   ~~~   ** Will be processed as Alpha=NECB 2011-HOSPITAL-NECB HDD METHOD-CAN_PQ_LAKE.EON.714210_CWEC.EPW CREATED: 2017-07-10 18:23:45 +0000\n   ************* IDF Context for following error/warning message:\n   ************* Note -- lines truncated at 300 characters, if necessary...\n   *************   5049 Schedule:Week:Daily,\n   ************* indicated Name=Schedule:Week:Daily {50fcfccf-1271-4fb8-94f4-c829bdbe8374}\n   ************* Only last 10 lines before error line shown.....\n   *************   5050   Schedule:Week:Daily {50fcfccf-1271-4fb8-94f4-c829bdbe8374}, !- Name\n   *************   5051   Sp-ER_Exam1_Mult4_Flr_1 Sys-3 Flr-1 Sch-H HPlcmt-south ZN NECB System 3 PSZ Occ Sch Sunday, !- Sunday Schedule:Day Name\n   *************   5052   Sp-ER_Exam1_Mult4_Flr_1 Sys-3 Flr-1 Sch-H HPlcmt-south ZN NECB System 3 PSZ Occ Sch Monday, !- Monday Schedule:Day Name\n   *************   5053   Sp-ER_Exam1_Mult4_Flr_1 Sys-3 Flr-1 Sch-H HPlcmt-south ZN NECB System 3 PSZ Occ Sch Tuesday, !- Tuesday Schedule:Day Name\n   *************   5054   Sp-ER_Exam1_Mult4_Flr_1 Sys-3 Flr-1 Sch-H HPlcmt-south ZN NECB System 3 PSZ Occ Sch Wednesday, !- Wednesday Schedule:Day Name\n   *************   5055   Sp-ER_Exam1_Mult4_Flr_1 Sys-3 Flr-1 Sch-H HPlcmt-south ZN NECB System 3 PSZ Occ Sch Thursday, !- Thursday Schedule:Day Name\n   *************   5056   Sp-ER_Exam1_Mult4_Flr_1 Sys-3 Flr-1 Sch-H HPlcmt-south ZN NECB System 3 PSZ Occ Sch Friday, !- Friday Schedule:Day Name\n   *************   5057   Sp-ER_Exam1_Mult4_Flr_1 Sys-3 Flr-1 Sch-H HPlcmt-south ZN NECB System 3 PSZ Occ Sch Saturday, !- Saturday Schedule:Day Name\n   *************   5058   Sp-ER_Exam1_Mult4_Flr_1 Sys-3 Flr-1 Sch-H HPlcmt-south ZN NECB System 3 PSZ Occ Sch Default, !- Holiday Schedule:Day Name\n   *************   5059   Sp-ER_Exam1_Mult4_Flr_1 Sys-3 Flr-1 Sch-H HPlcmt-south ZN NECB System 3 PSZ Occ Sch Summer Design Day, !- SummerDesignDay Schedule:Day Name\n   ** Warning ** IP: IDF line~5059 Alpha Argument length exceeds maximum, will be truncated=  Sp-ER_Exam1_Mult4_Flr_1 Sys-3 Flr-1 Sch-H HPlcmt-south ZN NECB System 3 PSZ Occ Sch Summer Design Da\n   **   ~~~   ** Will be processed as Alpha=SP-ER_EXAM1_MULT4_FLR_1 SYS-3 FLR-1 SCH-H HPLCMT-SOUTH ZN NECB SYSTEM 3 PSZ OCC SCH SUMMER DESIGN DAY\n   ************* IDF Context for following error/warning message:\n   ************* Note -- lines truncated at 300 characters, if necessary...\n   *************   5049 Schedule:Week:Daily,\n   ************* indicated Name=Schedule:Week:Daily {50fcfccf-1271-4fb8-94f4-c829bdbe8374}\n   ************* Only last 10 lines before error line shown.....\n   *************   5051   Sp-ER_Exam1_Mult4_Flr_1 Sys-3 Flr-1 Sch-H HPlcmt-south ZN NECB System 3 PSZ Occ Sch Sunday, !- Sunday Schedule:Day Name\n   *************   5052   Sp-ER_Exam1_Mult4_Flr_1 Sys-3 Flr-1 Sch-H HPlcmt-south ZN NECB System 3 PSZ Occ Sch Monday, !- Monday Schedule:Day Name\n   *************   5053   Sp-ER_Exam1_Mult4_Flr_1 Sys-3 Flr-1 Sch-H HPlcmt-south ZN NECB System 3 PSZ Occ Sch Tuesday, !- Tuesday Schedule:Day Name\n   *************   5054   Sp-ER_Exam1_Mult4_Flr_1 Sys-3 Flr-1 Sch-H HPlcmt-south ZN NECB System 3 PSZ Occ Sch Wednesday, !- Wednesday Schedule:Day Name\n   *************   5055   Sp-ER_Exam1_Mult4_Flr_1 Sys-3 Flr-1 Sch-H HPlcmt-south ZN NECB System 3 PSZ Occ Sch Thursday, !- Thursday Schedule:Day Name\n   *************   5056   Sp-ER_Exam1_Mult4_Flr_1 Sys-3 Flr-1 Sch-H HPlcmt-south ZN NECB System 3 PSZ Occ Sch Friday, !- Friday Schedule:Day Name\n   *************   5057   Sp-ER_Exam1_Mult4_Flr_1 Sys-3 Flr-1 Sch-H HPlcmt-south ZN NECB System 3 PSZ Occ Sch Saturday, !- Saturday Schedule:Day Name\n   *************   5058   Sp-ER_Exam1_Mult4_Flr_1 Sys-3 Flr-1 Sch-H HPlcmt-south ZN NECB System 3 PSZ Occ Sch Default, !- Holiday Schedule:Day Name\n   *************   5059   Sp-ER_Exam1_Mult4_Flr_1 Sys-3 Flr-1 Sch-H HPlcmt-south ZN NECB System 3 PSZ Occ Sch Summer Design Day, !- SummerDesignDay Schedule:Day Name\n   *************   5060   Sp-ER_Exam1_Mult4_Flr_1 Sys-3 Flr-1 Sch-H HPlcmt-south ZN NECB System 3 PSZ Occ Sch Winter Design Day, !- WinterDesignDay Schedule:Day Name\n   ** Warning ** IP: IDF line~5060 Alpha Argument length exceeds maximum, will be truncated=  Sp-ER_Exam1_Mult4_Flr_1 Sys-3 Flr-1 Sch-H HPlcmt-south ZN NECB System 3 PSZ Occ Sch Winter Design Da\n   **   ~~~   ** Will be processed as Alpha=SP-ER_EXAM1_MULT4_FLR_1 SYS-3 FLR-1 SCH-H HPLCMT-SOUTH ZN NECB SYSTEM 3 PSZ OCC SCH WINTER DESIGN DAY\n   ************* IDF Context for following error/warning message:\n   ************* Note -- lines truncated at 300 characters, if necessary...\n   *************   5080 Schedule:Day:Interval,\n   ************* indicated Name=Sp-ER_Exam1_Mult4_Flr_1 Sys-3 Flr-1 Sch-H HPlcmt-south ZN NECB System 3 PSZ Occ Sch Summer Design Day\n   ************* Only last 1 lines before error line shown.....\n   *************   5081   Sp-ER_Exam1_Mult4_Flr_1 Sys-3 Flr-1 Sch-H HPlcmt-south ZN NECB System 3 PSZ Occ Sch Summer Design Day, !- Name\n   ** Warning ** IP: IDF line~5081 Alpha Argument length exceeds maximum, will be truncated=  Sp-ER_Exam1_Mult4_Flr_1 Sys-3 Flr-1 Sch-H HPlcmt-south ZN NECB System 3 PSZ Occ Sch Summer Design Da\n   **   ~~~   ** Will be processed as Alpha=SP-ER_EXAM1_MULT4_FLR_1 SYS-3 FLR-1 SCH-H HPLCMT-SOUTH ZN NECB SYSTEM 3 PSZ OCC SCH SUMMER DESIGN DAY\n   ************* IDF Context for following error/warning message:\n   ************* Note -- lines truncated at 300 characters, if necessary...\n   *************   5087 Schedule:Day:Interval,\n   ************* indicated Name=Sp-ER_Exam1_Mult4_Flr_1 Sys-3 Flr-1 Sch-H HPlcmt-south ZN NECB System 3 PSZ Occ Sch Winter Design Day\n   ************* Only last 1 lines before error line shown.....\n   *************   5088   Sp-ER_Exam1_Mult4_Flr_1 Sys-3 Flr-1 Sch-H HPlcmt-south ZN NECB System 3 PSZ Occ Sch Winter Design Day, !- Name\n   ** Warning ** IP: IDF line~5088 Alpha Argument length exceeds maximum, will be truncated=  Sp-ER_Exam1_Mult4_Flr_1 Sys-3 Flr-1 Sch-H HPlcmt-south ZN NECB System 3 PSZ Occ Sch Winter Design Da\n   **   ~~~   ** Will be processed as Alpha=SP-ER_EXAM1_MULT4_FLR_1 SYS-3 FLR-1 SCH-H HPLCMT-SOUTH ZN NECB SYSTEM 3 PSZ OCC SCH WINTER DESIGN DAY\n   ************* IDF Context for following error/warning message:\n   ************* Note -- lines truncated at 300 characters, if necessary...\n   *************   5835 Schedule:Week:Daily,\n   ************* indicated Name=Schedule:Week:Daily {6c21ecea-d0c8-4dc6-8fce-006f32a0f7ab}\n   ************* Only last 10 lines before error line shown.....\n   *************   5836   Schedule:Week:Daily {6c21ecea-d0c8-4dc6-8fce-006f32a0f7ab}, !- Name\n   *************   5837   Sp-ER_NurseStn_Lobby_Flr_1 Sys-3 Flr-1 Sch-H HPlcmt-east ZN NECB System 3 PSZ Occ Sch Sunday, !- Sunday Schedule:Day Name\n   *************   5838   Sp-ER_NurseStn_Lobby_Flr_1 Sys-3 Flr-1 Sch-H HPlcmt-east ZN NECB System 3 PSZ Occ Sch Monday, !- Monday Schedule:Day Name\n   *************   5839   Sp-ER_NurseStn_Lobby_Flr_1 Sys-3 Flr-1 Sch-H HPlcmt-east ZN NECB System 3 PSZ Occ Sch Tuesday, !- Tuesday Schedule:Day Name\n   *************   5840   Sp-ER_NurseStn_Lobby_Flr_1 Sys-3 Flr-1 Sch-H HPlcmt-east ZN NECB System 3 PSZ Occ Sch Wednesday, !- Wednesday Schedule:Day Name\n   *************   5841   Sp-ER_NurseStn_Lobby_Flr_1 Sys-3 Flr-1 Sch-H HPlcmt-east ZN NECB System 3 PSZ Occ Sch Thursday, !- Thursday Schedule:Day Name\n   *************   5842   Sp-ER_NurseStn_Lobby_Flr_1 Sys-3 Flr-1 Sch-H HPlcmt-east ZN NECB System 3 PSZ Occ Sch Friday, !- Friday Schedule:Day Name\n   *************   5843   Sp-ER_NurseStn_Lobby_Flr_1 Sys-3 Flr-1 Sch-H HPlcmt-east ZN NECB System 3 PSZ Occ Sch Saturday, !- Saturday Schedule:Day Name\n   *************   5844   Sp-ER_NurseStn_Lobby_Flr_1 Sys-3 Flr-1 Sch-H HPlcmt-east ZN NECB System 3 PSZ Occ Sch Default, !- Holiday Schedule:Day Name\n   *************   5845   Sp-ER_NurseStn_Lobby_Flr_1 Sys-3 Flr-1 Sch-H HPlcmt-east ZN NECB System 3 PSZ Occ Sch Summer Design Day, !- SummerDesignDay Schedule:Day Name\n   ** Warning ** IP: IDF line~5845 Alpha Argument length exceeds maximum, will be truncated=  Sp-ER_NurseStn_Lobby_Flr_1 Sys-3 Flr-1 Sch-H HPlcmt-east ZN NECB System 3 PSZ Occ Sch Summer Design Da\n   **   ~~~   ** Will be processed as Alpha=SP-ER_NURSESTN_LOBBY_FLR_1 SYS-3 FLR-1 SCH-H HPLCMT-EAST ZN NECB SYSTEM 3 PSZ OCC SCH SUMMER DESIGN DAY\n   ************* IDF Context for following error/warning message:\n   ************* Note -- lines truncated at 300 characters, if necessary...\n   *************   5835 Schedule:Week:Daily,\n   ************* indicated Name=Schedule:Week:Daily {6c21ecea-d0c8-4dc6-8fce-006f32a0f7ab}\n   ************* Only last 10 lines before error line shown.....\n   *************   5837   Sp-ER_NurseStn_Lobby_Flr_1 Sys-3 Flr-1 Sch-H HPlcmt-east ZN NECB System 3 PSZ Occ Sch Sunday, !- Sunday Schedule:Day Name\n   *************   5838   Sp-ER_NurseStn_Lobby_Flr_1 Sys-3 Flr-1 Sch-H HPlcmt-east ZN NECB System 3 PSZ Occ Sch Monday, !- Monday Schedule:Day Name\n   *************   5839   Sp-ER_NurseStn_Lobby_Flr_1 Sys-3 Flr-1 Sch-H HPlcmt-east ZN NECB System 3 PSZ Occ Sch Tuesday, !- Tuesday Schedule:Day Name\n   *************   5840   Sp-ER_NurseStn_Lobby_Flr_1 Sys-3 Flr-1 Sch-H HPlcmt-east ZN NECB System 3 PSZ Occ Sch Wednesday, !- Wednesday Schedule:Day Name\n   *************   5841   Sp-ER_NurseStn_Lobby_Flr_1 Sys-3 Flr-1 Sch-H HPlcmt-east ZN NECB System 3 PSZ Occ Sch Thursday, !- Thursday Schedule:Day Name\n   *************   5842   Sp-ER_NurseStn_Lobby_Flr_1 Sys-3 Flr-1 Sch-H HPlcmt-east ZN NECB System 3 PSZ Occ Sch Friday, !- Friday Schedule:Day Name\n   *************   5843   Sp-ER_NurseStn_Lobby_Flr_1 Sys-3 Flr-1 Sch-H HPlcmt-east ZN NECB System 3 PSZ Occ Sch Saturday, !- Saturday Schedule:Day Name\n   *************   5844   Sp-ER_NurseStn_Lobby_Flr_1 Sys-3 Flr-1 Sch-H HPlcmt-east ZN NECB System 3 PSZ Occ Sch Default, !- Holiday Schedule:Day Name\n   *************   5845   Sp-ER_NurseStn_Lobby_Flr_1 Sys-3 Flr-1 Sch-H HPlcmt-east ZN NECB System 3 PSZ Occ Sch Summer Design Day, !- SummerDesignDay Schedule:Day Name\n   *************   5846   Sp-ER_NurseStn_Lobby_Flr_1 Sys-3 Flr-1 Sch-H HPlcmt-east ZN NECB System 3 PSZ Occ Sch Winter Design Day, !- WinterDesignDay Schedule:Day Name\n   ** Warning ** IP: IDF line~5846 Alpha Argument length exceeds maximum, will be truncated=  Sp-ER_NurseStn_Lobby_Flr_1 Sys-3 Flr-1 Sch-H HPlcmt-east ZN NECB System 3 PSZ Occ Sch Winter Design Da\n   **   ~~~   ** Will be processed as Alpha=SP-ER_NURSESTN_LOBBY_FLR_1 SYS-3 FLR-1 SCH-H HPLCMT-EAST ZN NECB SYSTEM 3 PSZ OCC SCH WINTER DESIGN DAY\n   ************* IDF Context for following error/warning message:\n   ************* Note -- lines truncated at 300 characters, if necessary...\n   *************   5866 Schedule:Day:Interval,\n   ************* indicated Name=Sp-ER_NurseStn_Lobby_Flr_1 Sys-3 Flr-1 Sch-H HPlcmt-east ZN NECB System 3 PSZ Occ Sch Summer Design Day\n   ************* Only last 1 lines before error line shown.....\n   *************   5867   Sp-ER_NurseStn_Lobby_Flr_1 Sys-3 Flr-1 Sch-H HPlcmt-east ZN NECB System 3 PSZ Occ Sch Summer Design Day, !- Name\n   ** Warning ** IP: IDF line~5867 Alpha Argument length exceeds maximum, will be truncated=  Sp-ER_NurseStn_Lobby_Flr_1 Sys-3 Flr-1 Sch-H HPlcmt-east ZN NECB System 3 PSZ Occ Sch Summer Design Da\n   **   ~~~   ** Will be processed as Alpha=SP-ER_NURSESTN_LOBBY_FLR_1 SYS-3 FLR-1 SCH-H HPLCMT-EAST ZN NECB SYSTEM 3 PSZ OCC SCH SUMMER DESIGN DAY\n   ************* IDF Context for following error/warning message:\n   ************* Note -- lines truncated at 300 characters, if necessary...\n   *************   5873 Schedule:Day:Interval,\n   ************* indicated Name=Sp-ER_NurseStn_Lobby_Flr_1 Sys-3 Flr-1 Sch-H HPlcmt-east ZN NECB System 3 PSZ Occ Sch Winter Design Day\n   ************* Only last 1 lines before error line shown.....\n   *************   5874   Sp-ER_NurseStn_Lobby_Flr_1 Sys-3 Flr-1 Sch-H HPlcmt-east ZN NECB System 3 PSZ Occ Sch Winter Design Day, !- Name\n   ** Warning ** IP: IDF line~5874 Alpha Argument length exceeds maximum, will be truncated=  Sp-ER_NurseStn_Lobby_Flr_1 Sys-3 Flr-1 Sch-H HPlcmt-east ZN NECB System 3 PSZ Occ Sch Winter Design Da\n   **   ~~~   ** Will be processed as Alpha=SP-ER_NURSESTN_LOBBY_FLR_1 SYS-3 FLR-1 SCH-H HPLCMT-EAST ZN NECB SYSTEM 3 PSZ OCC SCH WINTER DESIGN DAY\n   ************* IDF Context for following error/warning message:\n   ************* Note -- lines truncated at 300 characters, if necessary...\n   *************   6624 Schedule:Week:Daily,\n   ************* indicated Name=Schedule:Week:Daily {94d6ce7d-c766-4b21-8e4d-ed9226a1edb0}\n   ************* Only last 10 lines before error line shown.....\n   *************   6625   Schedule:Week:Daily {94d6ce7d-c766-4b21-8e4d-ed9226a1edb0}, !- Name\n   *************   6626   Sp-ER_Triage_Mult4_Flr_1 Sys-3 Flr-1 Sch-H HPlcmt-north ZN NECB System 3 PSZ Occ Sch Sunday, !- Sunday Schedule:Day Name\n   *************   6627   Sp-ER_Triage_Mult4_Flr_1 Sys-3 Flr-1 Sch-H HPlcmt-north ZN NECB System 3 PSZ Occ Sch Monday, !- Monday Schedule:Day Name\n   *************   6628   Sp-ER_Triage_Mult4_Flr_1 Sys-3 Flr-1 Sch-H HPlcmt-north ZN NECB System 3 PSZ Occ Sch Tuesday, !- Tuesday Schedule:Day Name\n   *************   6629   Sp-ER_Triage_Mult4_Flr_1 Sys-3 Flr-1 Sch-H HPlcmt-north ZN NECB System 3 PSZ Occ Sch Wednesday, !- Wednesday Schedule:Day Name\n   *************   6630   Sp-ER_Triage_Mult4_Flr_1 Sys-3 Flr-1 Sch-H HPlcmt-north ZN NECB System 3 PSZ Occ Sch Thursday, !- Thursday Schedule:Day Name\n   *************   6631   Sp-ER_Triage_Mult4_Flr_1 Sys-3 Flr-1 Sch-H HPlcmt-north ZN NECB System 3 PSZ Occ Sch Friday, !- Friday Schedule:Day Name\n   *************   6632   Sp-ER_Triage_Mult4_Flr_1 Sys-3 Flr-1 Sch-H HPlcmt-north ZN NECB System 3 PSZ Occ Sch Saturday, !- Saturday Schedule:Day Name\n   *************   6633   Sp-ER_Triage_Mult4_Flr_1 Sys-3 Flr-1 Sch-H HPlcmt-north ZN NECB System 3 PSZ Occ Sch Default, !- Holiday Schedule:Day Name\n   *************   6634   Sp-ER_Triage_Mult4_Flr_1 Sys-3 Flr-1 Sch-H HPlcmt-north ZN NECB System 3 PSZ Occ Sch Summer Design Day, !- SummerDesignDay Schedule:Day Name\n   ** Warning ** IP: IDF line~6634 Alpha Argument length exceeds maximum, will be truncated=  Sp-ER_Triage_Mult4_Flr_1 Sys-3 Flr-1 Sch-H HPlcmt-north ZN NECB System 3 PSZ Occ Sch Summer Design Da\n   **   ~~~   ** Will be processed as Alpha=SP-ER_TRIAGE_MULT4_FLR_1 SYS-3 FLR-1 SCH-H HPLCMT-NORTH ZN NECB SYSTEM 3 PSZ OCC SCH SUMMER DESIGN DAY\n   ************* IDF Context for following error/warning message:\n   ************* Note -- lines truncated at 300 characters, if necessary...\n   *************   6624 Schedule:Week:Daily,\n   ************* indicated Name=Schedule:Week:Daily {94d6ce7d-c766-4b21-8e4d-ed9226a1edb0}\n   ************* Only last 10 lines before error line shown.....\n   *************   6626   Sp-ER_Triage_Mult4_Flr_1 Sys-3 Flr-1 Sch-H HPlcmt-north ZN NECB System 3 PSZ Occ Sch Sunday, !- Sunday Schedule:Day Name\n   *************   6627   Sp-ER_Triage_Mult4_Flr_1 Sys-3 Flr-1 Sch-H HPlcmt-north ZN NECB System 3 PSZ Occ Sch Monday, !- Monday Schedule:Day Name\n   *************   6628   Sp-ER_Triage_Mult4_Flr_1 Sys-3 Flr-1 Sch-H HPlcmt-north ZN NECB System 3 PSZ Occ Sch Tuesday, !- Tuesday Schedule:Day Name\n   *************   6629   Sp-ER_Triage_Mult4_Flr_1 Sys-3 Flr-1 Sch-H HPlcmt-north ZN NECB System 3 PSZ Occ Sch Wednesday, !- Wednesday Schedule:Day Name\n   *************   6630   Sp-ER_Triage_Mult4_Flr_1 Sys-3 Flr-1 Sch-H HPlcmt-north ZN NECB System 3 PSZ Occ Sch Thursday, !- Thursday Schedule:Day Name\n   *************   6631   Sp-ER_Triage_Mult4_Flr_1 Sys-3 Flr-1 Sch-H HPlcmt-north ZN NECB System 3 PSZ Occ Sch Friday, !- Friday Schedule:Day Name\n   *************   6632   Sp-ER_Triage_Mult4_Flr_1 Sys-3 Flr-1 Sch-H HPlcmt-north ZN NECB System 3 PSZ Occ Sch Saturday, !- Saturday Schedule:Day Name\n   *************   6633   Sp-ER_Triage_Mult4_Flr_1 Sys-3 Flr-1 Sch-H HPlcmt-north ZN NECB System 3 PSZ Occ Sch Default, !- Holiday Schedule:Day Name\n   *************   6634   Sp-ER_Triage_Mult4_Flr_1 Sys-3 Flr-1 Sch-H HPlcmt-north ZN NECB System 3 PSZ Occ Sch Summer Design Day, !- SummerDesignDay Schedule:Day Name\n   *************   6635   Sp-ER_Triage_Mult4_Flr_1 Sys-3 Flr-1 Sch-H HPlcmt-north ZN NECB System 3 PSZ Occ Sch Winter Design Day, !- WinterDesignDay Schedule:Day Name\n   ** Warning ** IP: IDF line~6635 Alpha Argument length exceeds maximum, will be truncated=  Sp-ER_Triage_Mult4_Flr_1 Sys-3 Flr-1 Sch-H HPlcmt-north ZN NECB System 3 PSZ Occ Sch Winter Design Da\n   **   ~~~   ** Will be processed as Alpha=SP-ER_TRIAGE_MULT4_FLR_1 SYS-3 FLR-1 SCH-H HPLCMT-NORTH ZN NECB SYSTEM 3 PSZ OCC SCH WINTER DESIGN DAY\n   ************* IDF Context for following error/warning message:\n   ************* Note -- lines truncated at 300 characters, if necessary...\n   *************   6655 Schedule:Day:Interval,\n   ************* indicated Name=Sp-ER_Triage_Mult4_Flr_1 Sys-3 Flr-1 Sch-H HPlcmt-north ZN NECB System 3 PSZ Occ Sch Summer Design Day\n   ************* Only last 1 lines before error line shown.....\n   *************   6656   Sp-ER_Triage_Mult4_Flr_1 Sys-3 Flr-1 Sch-H HPlcmt-north ZN NECB System 3 PSZ Occ Sch Summer Design Day, !- Name\n   ** Warning ** IP: IDF line~6656 Alpha Argument length exceeds maximum, will be truncated=  Sp-ER_Triage_Mult4_Flr_1 Sys-3 Flr-1 Sch-H HPlcmt-north ZN NECB System 3 PSZ Occ Sch Summer Design Da\n   **   ~~~   ** Will be processed as Alpha=SP-ER_TRIAGE_MULT4_FLR_1 SYS-3 FLR-1 SCH-H HPLCMT-NORTH ZN NECB SYSTEM 3 PSZ OCC SCH SUMMER DESIGN DAY\n   ************* IDF Context for following error/warning message:\n   ************* Note -- lines truncated at 300 characters, if necessary...\n   *************   6662 Schedule:Day:Interval,\n   ************* indicated Name=Sp-ER_Triage_Mult4_Flr_1 Sys-3 Flr-1 Sch-H HPlcmt-north ZN NECB System 3 PSZ Occ Sch Winter Design Day\n   ************* Only last 1 lines before error line shown.....\n   *************   6663   Sp-ER_Triage_Mult4_Flr_1 Sys-3 Flr-1 Sch-H HPlcmt-north ZN NECB System 3 PSZ Occ Sch Winter Design Day, !- Name\n   ** Warning ** IP: IDF line~6663 Alpha Argument length exceeds maximum, will be truncated=  Sp-ER_Triage_Mult4_Flr_1 Sys-3 Flr-1 Sch-H HPlcmt-north ZN NECB System 3 PSZ Occ Sch Winter Design Da\n   **   ~~~   ** Will be processed as Alpha=SP-ER_TRIAGE_MULT4_FLR_1 SYS-3 FLR-1 SCH-H HPLCMT-NORTH ZN NECB SYSTEM 3 PSZ OCC SCH WINTER DESIGN DAY\n   ************* IDF Context for following error/warning message:\n   ************* Note -- lines truncated at 300 characters, if necessary...\n   *************   7346 Schedule:Week:Daily,\n   ************* indicated Name=Schedule:Week:Daily {e2ed66e9-3435-42a7-b74e-e643f49e7a57}\n   ************* Only last 10 lines before error line shown.....\n   *************   7347   Schedule:Week:Daily {e2ed66e9-3435-42a7-b74e-e643f49e7a57}, !- Name\n   *************   7348   Sp-ICU_NurseStn_Lobby_Flr_2 Sys-3 Flr-4 Sch-H HPlcmt-core ZN NECB System 3 PSZ Occ Sch Sunday, !- Sunday Schedule:Day Name\n   *************   7349   Sp-ICU_NurseStn_Lobby_Flr_2 Sys-3 Flr-4 Sch-H HPlcmt-core ZN NECB System 3 PSZ Occ Sch Monday, !- Monday Schedule:Day Name\n   *************   7350   Sp-ICU_NurseStn_Lobby_Flr_2 Sys-3 Flr-4 Sch-H HPlcmt-core ZN NECB System 3 PSZ Occ Sch Tuesday, !- Tuesday Schedule:Day Name\n   *************   7351   Sp-ICU_NurseStn_Lobby_Flr_2 Sys-3 Flr-4 Sch-H HPlcmt-core ZN NECB System 3 PSZ Occ Sch Wednesday, !- Wednesday Schedule:Day Name\n   *************   7352   Sp-ICU_NurseStn_Lobby_Flr_2 Sys-3 Flr-4 Sch-H HPlcmt-core ZN NECB System 3 PSZ Occ Sch Thursday, !- Thursday Schedule:Day Name\n   *************   7353   Sp-ICU_NurseStn_Lobby_Flr_2 Sys-3 Flr-4 Sch-H HPlcmt-core ZN NECB System 3 PSZ Occ Sch Friday, !- Friday Schedule:Day Name\n   *************   7354   Sp-ICU_NurseStn_Lobby_Flr_2 Sys-3 Flr-4 Sch-H HPlcmt-core ZN NECB System 3 PSZ Occ Sch Saturday, !- Saturday Schedule:Day Name\n   *************   7355   Sp-ICU_NurseStn_Lobby_Flr_2 Sys-3 Flr-4 Sch-H HPlcmt-core ZN NECB System 3 PSZ Occ Sch Default, !- Holiday Schedule:Day Name\n   *************   7356   Sp-ICU_NurseStn_Lobby_Flr_2 Sys-3 Flr-4 Sch-H HPlcmt-core ZN NECB System 3 PSZ Occ Sch Summer Design Day, !- SummerDesignDay Schedule:Day Name\n   ** Warning ** IP: IDF line~7356 Alpha Argument length exceeds maximum, will be truncated=  Sp-ICU_NurseStn_Lobby_Flr_2 Sys-3 Flr-4 Sch-H HPlcmt-core ZN NECB System 3 PSZ Occ Sch Summer Design Da\n   **   ~~~   ** Will be processed as Alpha=SP-ICU_NURSESTN_LOBBY_FLR_2 SYS-3 FLR-4 SCH-H HPLCMT-CORE ZN NECB SYSTEM 3 PSZ OCC SCH SUMMER DESIGN DAY\n   ************* IDF Context for following error/warning message:\n   ************* Note -- lines truncated at 300 characters, if necessary...\n   *************   7346 Schedule:Week:Daily,\n   ************* indicated Name=Schedule:Week:Daily {e2ed66e9-3435-42a7-b74e-e643f49e7a57}\n   ************* Only last 10 lines before error line shown.....\n   *************   7348   Sp-ICU_NurseStn_Lobby_Flr_2 Sys-3 Flr-4 Sch-H HPlcmt-core ZN NECB System 3 PSZ Occ Sch Sunday, !- Sunday Schedule:Day Name\n   *************   7349   Sp-ICU_NurseStn_Lobby_Flr_2 Sys-3 Flr-4 Sch-H HPlcmt-core ZN NECB System 3 PSZ Occ Sch Monday, !- Monday Schedule:Day Name\n   *************   7350   Sp-ICU_NurseStn_Lobby_Flr_2 Sys-3 Flr-4 Sch-H HPlcmt-core ZN NECB System 3 PSZ Occ Sch Tuesday, !- Tuesday Schedule:Day Name\n   *************   7351   Sp-ICU_NurseStn_Lobby_Flr_2 Sys-3 Flr-4 Sch-H HPlcmt-core ZN NECB System 3 PSZ Occ Sch Wednesday, !- Wednesday Schedule:Day Name\n   *************   7352   Sp-ICU_NurseStn_Lobby_Flr_2 Sys-3 Flr-4 Sch-H HPlcmt-core ZN NECB System 3 PSZ Occ Sch Thursday, !- Thursday Schedule:Day Name\n   *************   7353   Sp-ICU_NurseStn_Lobby_Flr_2 Sys-3 Flr-4 Sch-H HPlcmt-core ZN NECB System 3 PSZ Occ Sch Friday, !- Friday Schedule:Day Name\n   *************   7354   Sp-ICU_NurseStn_Lobby_Flr_2 Sys-3 Flr-4 Sch-H HPlcmt-core ZN NECB System 3 PSZ Occ Sch Saturday, !- Saturday Schedule:Day Name\n   *************   7355   Sp-ICU_NurseStn_Lobby_Flr_2 Sys-3 Flr-4 Sch-H HPlcmt-core ZN NECB System 3 PSZ Occ Sch Default, !- Holiday Schedule:Day Name\n   *************   7356   Sp-ICU_NurseStn_Lobby_Flr_2 Sys-3 Flr-4 Sch-H HPlcmt-core ZN NECB System 3 PSZ Occ Sch Summer Design Day, !- SummerDesignDay Schedule:Day Name\n   *************   7357   Sp-ICU_NurseStn_Lobby_Flr_2 Sys-3 Flr-4 Sch-H HPlcmt-core ZN NECB System 3 PSZ Occ Sch Winter Design Day, !- WinterDesignDay Schedule:Day Name\n   ** Warning ** IP: IDF line~7357 Alpha Argument length exceeds maximum, will be truncated=  Sp-ICU_NurseStn_Lobby_Flr_2 Sys-3 Flr-4 Sch-H HPlcmt-core ZN NECB System 3 PSZ Occ Sch Winter Design Da\n   **   ~~~   ** Will be processed as Alpha=SP-ICU_NURSESTN_LOBBY_FLR_2 SYS-3 FLR-4 SCH-H HPLCMT-CORE ZN NECB SYSTEM 3 PSZ OCC SCH WINTER DESIGN DAY\n   ************* IDF Context for following error/warning message:\n   ************* Note -- lines truncated at 300 characters, if necessary...\n   *************   7377 Schedule:Day:Interval,\n   ************* indicated Name=Sp-ICU_NurseStn_Lobby_Flr_2 Sys-3 Flr-4 Sch-H HPlcmt-core ZN NECB System 3 PSZ Occ Sch Summer Design Day\n   ************* Only last 1 lines before error line shown.....\n   *************   7378   Sp-ICU_NurseStn_Lobby_Flr_2 Sys-3 Flr-4 Sch-H HPlcmt-core ZN NECB System 3 PSZ Occ Sch Summer Design Day, !- Name\n   ** Warning ** IP: IDF line~7378 Alpha Argument length exceeds maximum, will be truncated=  Sp-ICU_NurseStn_Lobby_Flr_2 Sys-3 Flr-4 Sch-H HPlcmt-core ZN NECB System 3 PSZ Occ Sch Summer Design Da\n   **   ~~~   ** Will be processed as Alpha=SP-ICU_NURSESTN_LOBBY_FLR_2 SYS-3 FLR-4 SCH-H HPLCMT-CORE ZN NECB SYSTEM 3 PSZ OCC SCH SUMMER DESIGN DAY\n   ************* IDF Context for following error/warning message:\n   ************* Note -- lines truncated at 300 characters, if necessary...\n   *************   7384 Schedule:Day:Interval,\n   ************* indicated Name=Sp-ICU_NurseStn_Lobby_Flr_2 Sys-3 Flr-4 Sch-H HPlcmt-core ZN NECB System 3 PSZ Occ Sch Winter Design Day\n   ************* Only last 1 lines before error line shown.....\n   *************   7385   Sp-ICU_NurseStn_Lobby_Flr_2 Sys-3 Flr-4 Sch-H HPlcmt-core ZN NECB System 3 PSZ Occ Sch Winter Design Day, !- Name\n   ** Warning ** IP: IDF line~7385 Alpha Argument length exceeds maximum, will be truncated=  Sp-ICU_NurseStn_Lobby_Flr_2 Sys-3 Flr-4 Sch-H HPlcmt-core ZN NECB System 3 PSZ Occ Sch Winter Design Da\n   **   ~~~   ** Will be processed as Alpha=SP-ICU_NURSESTN_LOBBY_FLR_2 SYS-3 FLR-4 SCH-H HPLCMT-CORE ZN NECB SYSTEM 3 PSZ OCC SCH WINTER DESIGN DAY\n   ************* IDF Context for following error/warning message:\n   ************* Note -- lines truncated at 300 characters, if necessary...\n   *************   8183 Schedule:Week:Daily,\n   ************* indicated Name=Schedule:Week:Daily {fd275a65-50db-404e-ad02-b2a661fa9386}\n   ************* Only last 10 lines before error line shown.....\n   *************   8184   Schedule:Week:Daily {fd275a65-50db-404e-ad02-b2a661fa9386}, !- Name\n   *************   8185   Sp-IC_PatRoom3_Mult6_Flr_2 Sys-3 Flr-4 Sch-H HPlcmt-west ZN NECB System 3 PSZ Occ Sch Sunday, !- Sunday Schedule:Day Name\n   *************   8186   Sp-IC_PatRoom3_Mult6_Flr_2 Sys-3 Flr-4 Sch-H HPlcmt-west ZN NECB System 3 PSZ Occ Sch Monday, !- Monday Schedule:Day Name\n   *************   8187   Sp-IC_PatRoom3_Mult6_Flr_2 Sys-3 Flr-4 Sch-H HPlcmt-west ZN NECB System 3 PSZ Occ Sch Tuesday, !- Tuesday Schedule:Day Name\n   *************   8188   Sp-IC_PatRoom3_Mult6_Flr_2 Sys-3 Flr-4 Sch-H HPlcmt-west ZN NECB System 3 PSZ Occ Sch Wednesday, !- Wednesday Schedule:Day Name\n   *************   8189   Sp-IC_PatRoom3_Mult6_Flr_2 Sys-3 Flr-4 Sch-H HPlcmt-west ZN NECB System 3 PSZ Occ Sch Thursday, !- Thursday Schedule:Day Name\n   *************   8190   Sp-IC_PatRoom3_Mult6_Flr_2 Sys-3 Flr-4 Sch-H HPlcmt-west ZN NECB System 3 PSZ Occ Sch Friday, !- Friday Schedule:Day Name\n   *************   8191   Sp-IC_PatRoom3_Mult6_Flr_2 Sys-3 Flr-4 Sch-H HPlcmt-west ZN NECB System 3 PSZ Occ Sch Saturday, !- Saturday Schedule:Day Name\n   *************   8192   Sp-IC_PatRoom3_Mult6_Flr_2 Sys-3 Flr-4 Sch-H HPlcmt-west ZN NECB System 3 PSZ Occ Sch Default, !- Holiday Schedule:Day Name\n   *************   8193   Sp-IC_PatRoom3_Mult6_Flr_2 Sys-3 Flr-4 Sch-H HPlcmt-west ZN NECB System 3 PSZ Occ Sch Summer Design Day, !- SummerDesignDay Schedule:Day Name\n   ** Warning ** IP: IDF line~8193 Alpha Argument length exceeds maximum, will be truncated=  Sp-IC_PatRoom3_Mult6_Flr_2 Sys-3 Flr-4 Sch-H HPlcmt-west ZN NECB System 3 PSZ Occ Sch Summer Design Da\n   **   ~~~   ** Will be processed as Alpha=SP-IC_PATROOM3_MULT6_FLR_2 SYS-3 FLR-4 SCH-H HPLCMT-WEST ZN NECB SYSTEM 3 PSZ OCC SCH SUMMER DESIGN DAY\n   ************* IDF Context for following error/warning message:\n   ************* Note -- lines truncated at 300 characters, if necessary...\n   *************   8183 Schedule:Week:Daily,\n   ************* indicated Name=Schedule:Week:Daily {fd275a65-50db-404e-ad02-b2a661fa9386}\n   ************* Only last 10 lines before error line shown.....\n   *************   8185   Sp-IC_PatRoom3_Mult6_Flr_2 Sys-3 Flr-4 Sch-H HPlcmt-west ZN NECB System 3 PSZ Occ Sch Sunday, !- Sunday Schedule:Day Name\n   *************   8186   Sp-IC_PatRoom3_Mult6_Flr_2 Sys-3 Flr-4 Sch-H HPlcmt-west ZN NECB System 3 PSZ Occ Sch Monday, !- Monday Schedule:Day Name\n   *************   8187   Sp-IC_PatRoom3_Mult6_Flr_2 Sys-3 Flr-4 Sch-H HPlcmt-west ZN NECB System 3 PSZ Occ Sch Tuesday, !- Tuesday Schedule:Day Name\n   *************   8188   Sp-IC_PatRoom3_Mult6_Flr_2 Sys-3 Flr-4 Sch-H HPlcmt-west ZN NECB System 3 PSZ Occ Sch Wednesday, !- Wednesday Schedule:Day Name\n   *************   8189   Sp-IC_PatRoom3_Mult6_Flr_2 Sys-3 Flr-4 Sch-H HPlcmt-west ZN NECB System 3 PSZ Occ Sch Thursday, !- Thursday Schedule:Day Name\n   *************   8190   Sp-IC_PatRoom3_Mult6_Flr_2 Sys-3 Flr-4 Sch-H HPlcmt-west ZN NECB System 3 PSZ Occ Sch Friday, !- Friday Schedule:Day Name\n   *************   8191   Sp-IC_PatRoom3_Mult6_Flr_2 Sys-3 Flr-4 Sch-H HPlcmt-west ZN NECB System 3 PSZ Occ Sch Saturday, !- Saturday Schedule:Day Name\n   *************   8192   Sp-IC_PatRoom3_Mult6_Flr_2 Sys-3 Flr-4 Sch-H HPlcmt-west ZN NECB System 3 PSZ Occ Sch Default, !- Holiday Schedule:Day Name\n   *************   8193   Sp-IC_PatRoom3_Mult6_Flr_2 Sys-3 Flr-4 Sch-H HPlcmt-west ZN NECB System 3 PSZ Occ Sch Summer Design Day, !- SummerDesignDay Schedule:Day Name\n   *************   8194   Sp-IC_PatRoom3_Mult6_Flr_2 Sys-3 Flr-4 Sch-H HPlcmt-west ZN NECB System 3 PSZ Occ Sch Winter Design Day, !- WinterDesignDay Schedule:Day Name\n   ** Warning ** IP: IDF line~8194 Alpha Argument length exceeds maximum, will be truncated=  Sp-IC_PatRoom3_Mult6_Flr_2 Sys-3 Flr-4 Sch-H HPlcmt-west ZN NECB System 3 PSZ Occ Sch Winter Design Da\n   **   ~~~   ** Will be processed as Alpha=SP-IC_PATROOM3_MULT6_FLR_2 SYS-3 FLR-4 SCH-H HPLCMT-WEST ZN NECB SYSTEM 3 PSZ OCC SCH WINTER DESIGN DAY\n   ************* IDF Context for following error/warning message:\n   ************* Note -- lines truncated at 300 characters, if necessary...\n   *************   8214 Schedule:Day:Interval,\n   ************* indicated Name=Sp-IC_PatRoom3_Mult6_Flr_2 Sys-3 Flr-4 Sch-H HPlcmt-west ZN NECB System 3 PSZ Occ Sch Summer Design Day\n   ************* Only last 1 lines before error line shown.....\n   *************   8215   Sp-IC_PatRoom3_Mult6_Flr_2 Sys-3 Flr-4 Sch-H HPlcmt-west ZN NECB System 3 PSZ Occ Sch Summer Design Day, !- Name\n   ** Warning ** IP: IDF line~8215 Alpha Argument length exceeds maximum, will be truncated=  Sp-IC_PatRoom3_Mult6_Flr_2 Sys-3 Flr-4 Sch-H HPlcmt-west ZN NECB System 3 PSZ Occ Sch Summer Design Da\n   **   ~~~   ** Will be processed as Alpha=SP-IC_PATROOM3_MULT6_FLR_2 SYS-3 FLR-4 SCH-H HPLCMT-WEST ZN NECB SYSTEM 3 PSZ OCC SCH SUMMER DESIGN DAY\n   ************* IDF Context for following error/warning message:\n   ************* Note -- lines truncated at 300 characters, if necessary...\n   *************   8221 Schedule:Day:Interval,\n   ************* indicated Name=Sp-IC_PatRoom3_Mult6_Flr_2 Sys-3 Flr-4 Sch-H HPlcmt-west ZN NECB System 3 PSZ Occ Sch Winter Design Day\n   ************* Only last 1 lines before error line shown.....\n   *************   8222   Sp-IC_PatRoom3_Mult6_Flr_2 Sys-3 Flr-4 Sch-H HPlcmt-west ZN NECB System 3 PSZ Occ Sch Winter Design Day, !- Name\n   ** Warning ** IP: IDF line~8222 Alpha Argument length exceeds maximum, will be truncated=  Sp-IC_PatRoom3_Mult6_Flr_2 Sys-3 Flr-4 Sch-H HPlcmt-west ZN NECB System 3 PSZ Occ Sch Winter Design Da\n   **   ~~~   ** Will be processed as Alpha=SP-IC_PATROOM3_MULT6_FLR_2 SYS-3 FLR-4 SCH-H HPLCMT-WEST ZN NECB SYSTEM 3 PSZ OCC SCH WINTER DESIGN DAY\n   ************* IDF Context for following error/warning message:\n   ************* Note -- lines truncated at 300 characters, if necessary...\n   *************  10841 Schedule:Week:Daily,\n   ************* indicated Name=Schedule:Week:Daily {1a2a7df2-a5dd-4a47-8558-cc5fedaba828}\n   ************* Only last 10 lines before error line shown.....\n   *************  10842   Schedule:Week:Daily {1a2a7df2-a5dd-4a47-8558-cc5fedaba828}, !- Name\n   *************  10843   Sp-NurseStn_Lobby_Flr_5 Sys-3 Flr-6 Sch-H HPlcmt-south ZN NECB System 3 PSZ Occ Sch Sunday, !- Sunday Schedule:Day Name\n   *************  10844   Sp-NurseStn_Lobby_Flr_5 Sys-3 Flr-6 Sch-H HPlcmt-south ZN NECB System 3 PSZ Occ Sch Monday, !- Monday Schedule:Day Name\n   *************  10845   Sp-NurseStn_Lobby_Flr_5 Sys-3 Flr-6 Sch-H HPlcmt-south ZN NECB System 3 PSZ Occ Sch Tuesday, !- Tuesday Schedule:Day Name\n   *************  10846   Sp-NurseStn_Lobby_Flr_5 Sys-3 Flr-6 Sch-H HPlcmt-south ZN NECB System 3 PSZ Occ Sch Wednesday, !- Wednesday Schedule:Day Name\n   *************  10847   Sp-NurseStn_Lobby_Flr_5 Sys-3 Flr-6 Sch-H HPlcmt-south ZN NECB System 3 PSZ Occ Sch Thursday, !- Thursday Schedule:Day Name\n   *************  10848   Sp-NurseStn_Lobby_Flr_5 Sys-3 Flr-6 Sch-H HPlcmt-south ZN NECB System 3 PSZ Occ Sch Friday, !- Friday Schedule:Day Name\n   *************  10849   Sp-NurseStn_Lobby_Flr_5 Sys-3 Flr-6 Sch-H HPlcmt-south ZN NECB System 3 PSZ Occ Sch Saturday, !- Saturday Schedule:Day Name\n   *************  10850   Sp-NurseStn_Lobby_Flr_5 Sys-3 Flr-6 Sch-H HPlcmt-south ZN NECB System 3 PSZ Occ Sch Default, !- Holiday Schedule:Day Name\n   *************  10851   Sp-NurseStn_Lobby_Flr_5 Sys-3 Flr-6 Sch-H HPlcmt-south ZN NECB System 3 PSZ Occ Sch Summer Design Day, !- SummerDesignDay Schedule:Day Name\n   ** Warning ** IP: IDF line~10851 Alpha Argument length exceeds maximum, will be truncated=  Sp-NurseStn_Lobby_Flr_5 Sys-3 Flr-6 Sch-H HPlcmt-south ZN NECB System 3 PSZ Occ Sch Summer Design Da\n   **   ~~~   ** Will be processed as Alpha=SP-NURSESTN_LOBBY_FLR_5 SYS-3 FLR-6 SCH-H HPLCMT-SOUTH ZN NECB SYSTEM 3 PSZ OCC SCH SUMMER DESIGN DAY\n   ************* IDF Context for following error/warning message:\n   ************* Note -- lines truncated at 300 characters, if necessary...\n   *************  10841 Schedule:Week:Daily,\n   ************* indicated Name=Schedule:Week:Daily {1a2a7df2-a5dd-4a47-8558-cc5fedaba828}\n   ************* Only last 10 lines before error line shown.....\n   *************  10843   Sp-NurseStn_Lobby_Flr_5 Sys-3 Flr-6 Sch-H HPlcmt-south ZN NECB System 3 PSZ Occ Sch Sunday, !- Sunday Schedule:Day Name\n   *************  10844   Sp-NurseStn_Lobby_Flr_5 Sys-3 Flr-6 Sch-H HPlcmt-south ZN NECB System 3 PSZ Occ Sch Monday, !- Monday Schedule:Day Name\n   *************  10845   Sp-NurseStn_Lobby_Flr_5 Sys-3 Flr-6 Sch-H HPlcmt-south ZN NECB System 3 PSZ Occ Sch Tuesday, !- Tuesday Schedule:Day Name\n   *************  10846   Sp-NurseStn_Lobby_Flr_5 Sys-3 Flr-6 Sch-H HPlcmt-south ZN NECB System 3 PSZ Occ Sch Wednesday, !- Wednesday Schedule:Day Name\n   *************  10847   Sp-NurseStn_Lobby_Flr_5 Sys-3 Flr-6 Sch-H HPlcmt-south ZN NECB System 3 PSZ Occ Sch Thursday, !- Thursday Schedule:Day Name\n   *************  10848   Sp-NurseStn_Lobby_Flr_5 Sys-3 Flr-6 Sch-H HPlcmt-south ZN NECB System 3 PSZ Occ Sch Friday, !- Friday Schedule:Day Name\n   *************  10849   Sp-NurseStn_Lobby_Flr_5 Sys-3 Flr-6 Sch-H HPlcmt-south ZN NECB System 3 PSZ Occ Sch Saturday, !- Saturday Schedule:Day Name\n   *************  10850   Sp-NurseStn_Lobby_Flr_5 Sys-3 Flr-6 Sch-H HPlcmt-south ZN NECB System 3 PSZ Occ Sch Default, !- Holiday Schedule:Day Name\n   *************  10851   Sp-NurseStn_Lobby_Flr_5 Sys-3 Flr-6 Sch-H HPlcmt-south ZN NECB System 3 PSZ Occ Sch Summer Design Day, !- SummerDesignDay Schedule:Day Name\n   *************  10852   Sp-NurseStn_Lobby_Flr_5 Sys-3 Flr-6 Sch-H HPlcmt-south ZN NECB System 3 PSZ Occ Sch Winter Design Day, !- WinterDesignDay Schedule:Day Name\n   ** Warning ** IP: IDF line~10852 Alpha Argument length exceeds maximum, will be truncated=  Sp-NurseStn_Lobby_Flr_5 Sys-3 Flr-6 Sch-H HPlcmt-south ZN NECB System 3 PSZ Occ Sch Winter Design Da\n   **   ~~~   ** Will be processed as Alpha=SP-NURSESTN_LOBBY_FLR_5 SYS-3 FLR-6 SCH-H HPLCMT-SOUTH ZN NECB SYSTEM 3 PSZ OCC SCH WINTER DESIGN DAY\n   ************* IDF Context for following error/warning message:\n   ************* Note -- lines truncated at 300 characters, if necessary...\n   *************  10872 Schedule:Day:Interval,\n   ************* indicated Name=Sp-NurseStn_Lobby_Flr_5 Sys-3 Flr-6 Sch-H HPlcmt-south ZN NECB System 3 PSZ Occ Sch Summer Design Day\n   ************* Only last 1 lines before error line shown.....\n   *************  10873   Sp-NurseStn_Lobby_Flr_5 Sys-3 Flr-6 Sch-H HPlcmt-south ZN NECB System 3 PSZ Occ Sch Summer Design Day, !- Name\n   ** Warning ** IP: IDF line~10873 Alpha Argument length exceeds maximum, will be truncated=  Sp-NurseStn_Lobby_Flr_5 Sys-3 Flr-6 Sch-H HPlcmt-south ZN NECB System 3 PSZ Occ Sch Summer Design Da\n   **   ~~~   ** Will be processed as Alpha=SP-NURSESTN_LOBBY_FLR_5 SYS-3 FLR-6 SCH-H HPLCMT-SOUTH ZN NECB SYSTEM 3 PSZ OCC SCH SUMMER DESIGN DAY\n   ************* IDF Context for following error/warning message:\n   ************* Note -- lines truncated at 300 characters, if necessary...\n   *************  10879 Schedule:Day:Interval,\n   ************* indicated Name=Sp-NurseStn_Lobby_Flr_5 Sys-3 Flr-6 Sch-H HPlcmt-south ZN NECB System 3 PSZ Occ Sch Winter Design Day\n   ************* Only last 1 lines before error line shown.....\n   *************  10880   Sp-NurseStn_Lobby_Flr_5 Sys-3 Flr-6 Sch-H HPlcmt-south ZN NECB System 3 PSZ Occ Sch Winter Design Day, !- Name\n   ** Warning ** IP: IDF line~10880 Alpha Argument length exceeds maximum, will be truncated=  Sp-NurseStn_Lobby_Flr_5 Sys-3 Flr-6 Sch-H HPlcmt-south ZN NECB System 3 PSZ Occ Sch Winter Design Da\n   **   ~~~   ** Will be processed as Alpha=SP-NURSESTN_LOBBY_FLR_5 SYS-3 FLR-6 SCH-H HPLCMT-SOUTH ZN NECB SYSTEM 3 PSZ OCC SCH WINTER DESIGN DAY\n   ************* IDF Context for following error/warning message:\n   ************* Note -- lines truncated at 300 characters, if necessary...\n   *************  13931 Schedule:Week:Daily,\n   ************* indicated Name=Schedule:Week:Daily {ba6e3d8e-bd10-431d-b444-e692b8dda08d}\n   ************* Only last 10 lines before error line shown.....\n   *************  13932   Schedule:Week:Daily {ba6e3d8e-bd10-431d-b444-e692b8dda08d}, !- Name\n   *************  13933   Sp-OR_NurseStn_Lobby_Flr_2 Sys-3 Flr-4 Sch-H HPlcmt-south ZN NECB System 3 PSZ Occ Sch Sunday, !- Sunday Schedule:Day Name\n   *************  13934   Sp-OR_NurseStn_Lobby_Flr_2 Sys-3 Flr-4 Sch-H HPlcmt-south ZN NECB System 3 PSZ Occ Sch Monday, !- Monday Schedule:Day Name\n   *************  13935   Sp-OR_NurseStn_Lobby_Flr_2 Sys-3 Flr-4 Sch-H HPlcmt-south ZN NECB System 3 PSZ Occ Sch Tuesday, !- Tuesday Schedule:Day Name\n   *************  13936   Sp-OR_NurseStn_Lobby_Flr_2 Sys-3 Flr-4 Sch-H HPlcmt-south ZN NECB System 3 PSZ Occ Sch Wednesday, !- Wednesday Schedule:Day Name\n   *************  13937   Sp-OR_NurseStn_Lobby_Flr_2 Sys-3 Flr-4 Sch-H HPlcmt-south ZN NECB System 3 PSZ Occ Sch Thursday, !- Thursday Schedule:Day Name\n   *************  13938   Sp-OR_NurseStn_Lobby_Flr_2 Sys-3 Flr-4 Sch-H HPlcmt-south ZN NECB System 3 PSZ Occ Sch Friday, !- Friday Schedule:Day Name\n   *************  13939   Sp-OR_NurseStn_Lobby_Flr_2 Sys-3 Flr-4 Sch-H HPlcmt-south ZN NECB System 3 PSZ Occ Sch Saturday, !- Saturday Schedule:Day Name\n   *************  13940   Sp-OR_NurseStn_Lobby_Flr_2 Sys-3 Flr-4 Sch-H HPlcmt-south ZN NECB System 3 PSZ Occ Sch Default, !- Holiday Schedule:Day Name\n   *************  13941   Sp-OR_NurseStn_Lobby_Flr_2 Sys-3 Flr-4 Sch-H HPlcmt-south ZN NECB System 3 PSZ Occ Sch Summer Design Day, !- SummerDesignDay Schedule:Day Name\n   ** Warning ** IP: IDF line~13941 Alpha Argument length exceeds maximum, will be truncated=  Sp-OR_NurseStn_Lobby_Flr_2 Sys-3 Flr-4 Sch-H HPlcmt-south ZN NECB System 3 PSZ Occ Sch Summer Design Da\n   **   ~~~   ** Will be processed as Alpha=SP-OR_NURSESTN_LOBBY_FLR_2 SYS-3 FLR-4 SCH-H HPLCMT-SOUTH ZN NECB SYSTEM 3 PSZ OCC SCH SUMMER DESIGN DAY\n   ************* IDF Context for following error/warning message:\n   ************* Note -- lines truncated at 300 characters, if necessary...\n   *************  13931 Schedule:Week:Daily,\n   ************* indicated Name=Schedule:Week:Daily {ba6e3d8e-bd10-431d-b444-e692b8dda08d}\n   ************* Only last 10 lines before error line shown.....\n   *************  13933   Sp-OR_NurseStn_Lobby_Flr_2 Sys-3 Flr-4 Sch-H HPlcmt-south ZN NECB System 3 PSZ Occ Sch Sunday, !- Sunday Schedule:Day Name\n   *************  13934   Sp-OR_NurseStn_Lobby_Flr_2 Sys-3 Flr-4 Sch-H HPlcmt-south ZN NECB System 3 PSZ Occ Sch Monday, !- Monday Schedule:Day Name\n   *************  13935   Sp-OR_NurseStn_Lobby_Flr_2 Sys-3 Flr-4 Sch-H HPlcmt-south ZN NECB System 3 PSZ Occ Sch Tuesday, !- Tuesday Schedule:Day Name\n   *************  13936   Sp-OR_NurseStn_Lobby_Flr_2 Sys-3 Flr-4 Sch-H HPlcmt-south ZN NECB System 3 PSZ Occ Sch Wednesday, !- Wednesday Schedule:Day Name\n   *************  13937   Sp-OR_NurseStn_Lobby_Flr_2 Sys-3 Flr-4 Sch-H HPlcmt-south ZN NECB System 3 PSZ Occ Sch Thursday, !- Thursday Schedule:Day Name\n   *************  13938   Sp-OR_NurseStn_Lobby_Flr_2 Sys-3 Flr-4 Sch-H HPlcmt-south ZN NECB System 3 PSZ Occ Sch Friday, !- Friday Schedule:Day Name\n   *************  13939   Sp-OR_NurseStn_Lobby_Flr_2 Sys-3 Flr-4 Sch-H HPlcmt-south ZN NECB System 3 PSZ Occ Sch Saturday, !- Saturday Schedule:Day Name\n   *************  13940   Sp-OR_NurseStn_Lobby_Flr_2 Sys-3 Flr-4 Sch-H HPlcmt-south ZN NECB System 3 PSZ Occ Sch Default, !- Holiday Schedule:Day Name\n   *************  13941   Sp-OR_NurseStn_Lobby_Flr_2 Sys-3 Flr-4 Sch-H HPlcmt-south ZN NECB System 3 PSZ Occ Sch Summer Design Day, !- SummerDesignDay Schedule:Day Name\n   *************  13942   Sp-OR_NurseStn_Lobby_Flr_2 Sys-3 Flr-4 Sch-H HPlcmt-south ZN NECB System 3 PSZ Occ Sch Winter Design Day, !- WinterDesignDay Schedule:Day Name\n   ** Warning ** IP: IDF line~13942 Alpha Argument length exceeds maximum, will be truncated=  Sp-OR_NurseStn_Lobby_Flr_2 Sys-3 Flr-4 Sch-H HPlcmt-south ZN NECB System 3 PSZ Occ Sch Winter Design Da\n   **   ~~~   ** Will be processed as Alpha=SP-OR_NURSESTN_LOBBY_FLR_2 SYS-3 FLR-4 SCH-H HPLCMT-SOUTH ZN NECB SYSTEM 3 PSZ OCC SCH WINTER DESIGN DAY\n   ************* IDF Context for following error/warning message:\n   ************* Note -- lines truncated at 300 characters, if necessary...\n   *************  13962 Schedule:Day:Interval,\n   ************* indicated Name=Sp-OR_NurseStn_Lobby_Flr_2 Sys-3 Flr-4 Sch-H HPlcmt-south ZN NECB System 3 PSZ Occ Sch Summer Design Day\n   ************* Only last 1 lines before error line shown.....\n   *************  13963   Sp-OR_NurseStn_Lobby_Flr_2 Sys-3 Flr-4 Sch-H HPlcmt-south ZN NECB System 3 PSZ Occ Sch Summer Design Day, !- Name\n   ** Warning ** IP: IDF line~13963 Alpha Argument length exceeds maximum, will be truncated=  Sp-OR_NurseStn_Lobby_Flr_2 Sys-3 Flr-4 Sch-H HPlcmt-south ZN NECB System 3 PSZ Occ Sch Summer Design Da\n   **   ~~~   ** Will be processed as Alpha=SP-OR_NURSESTN_LOBBY_FLR_2 SYS-3 FLR-4 SCH-H HPLCMT-SOUTH ZN NECB SYSTEM 3 PSZ OCC SCH SUMMER DESIGN DAY\n   ************* IDF Context for following error/warning message:\n   ************* Note -- lines truncated at 300 characters, if necessary...\n   *************  13969 Schedule:Day:Interval,\n   ************* indicated Name=Sp-OR_NurseStn_Lobby_Flr_2 Sys-3 Flr-4 Sch-H HPlcmt-south ZN NECB System 3 PSZ Occ Sch Winter Design Day\n   ************* Only last 1 lines before error line shown.....\n   *************  13970   Sp-OR_NurseStn_Lobby_Flr_2 Sys-3 Flr-4 Sch-H HPlcmt-south ZN NECB System 3 PSZ Occ Sch Winter Design Day, !- Name\n   ** Warning ** IP: IDF line~13970 Alpha Argument length exceeds maximum, will be truncated=  Sp-OR_NurseStn_Lobby_Flr_2 Sys-3 Flr-4 Sch-H HPlcmt-south ZN NECB System 3 PSZ Occ Sch Winter Design Da\n   **   ~~~   ** Will be processed as Alpha=SP-OR_NURSESTN_LOBBY_FLR_2 SYS-3 FLR-4 SCH-H HPLCMT-SOUTH ZN NECB SYSTEM 3 PSZ OCC SCH WINTER DESIGN DAY\n   ************* IDF Context for following error/warning message:\n   ************* Note -- lines truncated at 300 characters, if necessary...\n   *************  14270 Schedule:Week:Daily,\n   ************* indicated Name=Schedule:Week:Daily {a5e23426-3a2b-450d-8aeb-22cf39d16d47}\n   ************* Only last 10 lines before error line shown.....\n   *************  14271   Schedule:Week:Daily {a5e23426-3a2b-450d-8aeb-22cf39d16d47}, !- Name\n   *************  14272   Sp-PatRoom1_Mult10_Flr_3 Sys-3 Flr-2 Sch-H HPlcmt-south ZN NECB System 3 PSZ Occ Sch Sunday, !- Sunday Schedule:Day Name\n   *************  14273   Sp-PatRoom1_Mult10_Flr_3 Sys-3 Flr-2 Sch-H HPlcmt-south ZN NECB System 3 PSZ Occ Sch Monday, !- Monday Schedule:Day Name\n   *************  14274   Sp-PatRoom1_Mult10_Flr_3 Sys-3 Flr-2 Sch-H HPlcmt-south ZN NECB System 3 PSZ Occ Sch Tuesday, !- Tuesday Schedule:Day Name\n   *************  14275   Sp-PatRoom1_Mult10_Flr_3 Sys-3 Flr-2 Sch-H HPlcmt-south ZN NECB System 3 PSZ Occ Sch Wednesday, !- Wednesday Schedule:Day Name\n   *************  14276   Sp-PatRoom1_Mult10_Flr_3 Sys-3 Flr-2 Sch-H HPlcmt-south ZN NECB System 3 PSZ Occ Sch Thursday, !- Thursday Schedule:Day Name\n   *************  14277   Sp-PatRoom1_Mult10_Flr_3 Sys-3 Flr-2 Sch-H HPlcmt-south ZN NECB System 3 PSZ Occ Sch Friday, !- Friday Schedule:Day Name\n   *************  14278   Sp-PatRoom1_Mult10_Flr_3 Sys-3 Flr-2 Sch-H HPlcmt-south ZN NECB System 3 PSZ Occ Sch Saturday, !- Saturday Schedule:Day Name\n   *************  14279   Sp-PatRoom1_Mult10_Flr_3 Sys-3 Flr-2 Sch-H HPlcmt-south ZN NECB System 3 PSZ Occ Sch Default, !- Holiday Schedule:Day Name\n   *************  14280   Sp-PatRoom1_Mult10_Flr_3 Sys-3 Flr-2 Sch-H HPlcmt-south ZN NECB System 3 PSZ Occ Sch Summer Design Day, !- SummerDesignDay Schedule:Day Name\n   ** Warning ** IP: IDF line~14280 Alpha Argument length exceeds maximum, will be truncated=  Sp-PatRoom1_Mult10_Flr_3 Sys-3 Flr-2 Sch-H HPlcmt-south ZN NECB System 3 PSZ Occ Sch Summer Design Da\n   **   ~~~   ** Will be processed as Alpha=SP-PATROOM1_MULT10_FLR_3 SYS-3 FLR-2 SCH-H HPLCMT-SOUTH ZN NECB SYSTEM 3 PSZ OCC SCH SUMMER DESIGN DAY\n   ************* IDF Context for following error/warning message:\n   ************* Note -- lines truncated at 300 characters, if necessary...\n   *************  14270 Schedule:Week:Daily,\n   ************* indicated Name=Schedule:Week:Daily {a5e23426-3a2b-450d-8aeb-22cf39d16d47}\n   ************* Only last 10 lines before error line shown.....\n   *************  14272   Sp-PatRoom1_Mult10_Flr_3 Sys-3 Flr-2 Sch-H HPlcmt-south ZN NECB System 3 PSZ Occ Sch Sunday, !- Sunday Schedule:Day Name\n   *************  14273   Sp-PatRoom1_Mult10_Flr_3 Sys-3 Flr-2 Sch-H HPlcmt-south ZN NECB System 3 PSZ Occ Sch Monday, !- Monday Schedule:Day Name\n   *************  14274   Sp-PatRoom1_Mult10_Flr_3 Sys-3 Flr-2 Sch-H HPlcmt-south ZN NECB System 3 PSZ Occ Sch Tuesday, !- Tuesday Schedule:Day Name\n   *************  14275   Sp-PatRoom1_Mult10_Flr_3 Sys-3 Flr-2 Sch-H HPlcmt-south ZN NECB System 3 PSZ Occ Sch Wednesday, !- Wednesday Schedule:Day Name\n   *************  14276   Sp-PatRoom1_Mult10_Flr_3 Sys-3 Flr-2 Sch-H HPlcmt-south ZN NECB System 3 PSZ Occ Sch Thursday, !- Thursday Schedule:Day Name\n   *************  14277   Sp-PatRoom1_Mult10_Flr_3 Sys-3 Flr-2 Sch-H HPlcmt-south ZN NECB System 3 PSZ Occ Sch Friday, !- Friday Schedule:Day Name\n   *************  14278   Sp-PatRoom1_Mult10_Flr_3 Sys-3 Flr-2 Sch-H HPlcmt-south ZN NECB System 3 PSZ Occ Sch Saturday, !- Saturday Schedule:Day Name\n   *************  14279   Sp-PatRoom1_Mult10_Flr_3 Sys-3 Flr-2 Sch-H HPlcmt-south ZN NECB System 3 PSZ Occ Sch Default, !- Holiday Schedule:Day Name\n   *************  14280   Sp-PatRoom1_Mult10_Flr_3 Sys-3 Flr-2 Sch-H HPlcmt-south ZN NECB System 3 PSZ Occ Sch Summer Design Day, !- SummerDesignDay Schedule:Day Name\n   *************  14281   Sp-PatRoom1_Mult10_Flr_3 Sys-3 Flr-2 Sch-H HPlcmt-south ZN NECB System 3 PSZ Occ Sch Winter Design Day, !- WinterDesignDay Schedule:Day Name\n   ** Warning ** IP: IDF line~14281 Alpha Argument length exceeds maximum, will be truncated=  Sp-PatRoom1_Mult10_Flr_3 Sys-3 Flr-2 Sch-H HPlcmt-south ZN NECB System 3 PSZ Occ Sch Winter Design Da\n   **   ~~~   ** Will be processed as Alpha=SP-PATROOM1_MULT10_FLR_3 SYS-3 FLR-2 SCH-H HPLCMT-SOUTH ZN NECB SYSTEM 3 PSZ OCC SCH WINTER DESIGN DAY\n   ************* IDF Context for following error/warning message:\n   ************* Note -- lines truncated at 300 characters, if necessary...\n   *************  14301 Schedule:Day:Interval,\n   ************* indicated Name=Sp-PatRoom1_Mult10_Flr_3 Sys-3 Flr-2 Sch-H HPlcmt-south ZN NECB System 3 PSZ Occ Sch Summer Design Day\n   ************* Only last 1 lines before error line shown.....\n   *************  14302   Sp-PatRoom1_Mult10_Flr_3 Sys-3 Flr-2 Sch-H HPlcmt-south ZN NECB System 3 PSZ Occ Sch Summer Design Day, !- Name\n   ** Warning ** IP: IDF line~14302 Alpha Argument length exceeds maximum, will be truncated=  Sp-PatRoom1_Mult10_Flr_3 Sys-3 Flr-2 Sch-H HPlcmt-south ZN NECB System 3 PSZ Occ Sch Summer Design Da\n   **   ~~~   ** Will be processed as Alpha=SP-PATROOM1_MULT10_FLR_3 SYS-3 FLR-2 SCH-H HPLCMT-SOUTH ZN NECB SYSTEM 3 PSZ OCC SCH SUMMER DESIGN DAY\n   ************* IDF Context for following error/warning message:\n   ************* Note -- lines truncated at 300 characters, if necessary...\n   *************  14308 Schedule:Day:Interval,\n   ************* indicated Name=Sp-PatRoom1_Mult10_Flr_3 Sys-3 Flr-2 Sch-H HPlcmt-south ZN NECB System 3 PSZ Occ Sch Winter Design Day\n   ************* Only last 1 lines before error line shown.....\n   *************  14309   Sp-PatRoom1_Mult10_Flr_3 Sys-3 Flr-2 Sch-H HPlcmt-south ZN NECB System 3 PSZ Occ Sch Winter Design Day, !- Name\n   ** Warning ** IP: IDF line~14309 Alpha Argument length exceeds maximum, will be truncated=  Sp-PatRoom1_Mult10_Flr_3 Sys-3 Flr-2 Sch-H HPlcmt-south ZN NECB System 3 PSZ Occ Sch Winter Design Da\n   **   ~~~   ** Will be processed as Alpha=SP-PATROOM1_MULT10_FLR_3 SYS-3 FLR-2 SCH-H HPLCMT-SOUTH ZN NECB SYSTEM 3 PSZ OCC SCH WINTER DESIGN DAY\n   ************* IDF Context for following error/warning message:\n   ************* Note -- lines truncated at 300 characters, if necessary...\n   *************  14609 Schedule:Week:Daily,\n   ************* indicated Name=Schedule:Week:Daily {3158b539-b648-4364-aac6-23f331092147}\n   ************* Only last 10 lines before error line shown.....\n   *************  14610   Schedule:Week:Daily {3158b539-b648-4364-aac6-23f331092147}, !- Name\n   *************  14611   Sp-PatRoom1_Mult10_Flr_4 Sys-3 Flr-3 Sch-H HPlcmt-south ZN NECB System 3 PSZ Occ Sch Sunday, !- Sunday Schedule:Day Name\n   *************  14612   Sp-PatRoom1_Mult10_Flr_4 Sys-3 Flr-3 Sch-H HPlcmt-south ZN NECB System 3 PSZ Occ Sch Monday, !- Monday Schedule:Day Name\n   *************  14613   Sp-PatRoom1_Mult10_Flr_4 Sys-3 Flr-3 Sch-H HPlcmt-south ZN NECB System 3 PSZ Occ Sch Tuesday, !- Tuesday Schedule:Day Name\n   *************  14614   Sp-PatRoom1_Mult10_Flr_4 Sys-3 Flr-3 Sch-H HPlcmt-south ZN NECB System 3 PSZ Occ Sch Wednesday, !- Wednesday Schedule:Day Name\n   *************  14615   Sp-PatRoom1_Mult10_Flr_4 Sys-3 Flr-3 Sch-H HPlcmt-south ZN NECB System 3 PSZ Occ Sch Thursday, !- Thursday Schedule:Day Name\n   *************  14616   Sp-PatRoom1_Mult10_Flr_4 Sys-3 Flr-3 Sch-H HPlcmt-south ZN NECB System 3 PSZ Occ Sch Friday, !- Friday Schedule:Day Name\n   *************  14617   Sp-PatRoom1_Mult10_Flr_4 Sys-3 Flr-3 Sch-H HPlcmt-south ZN NECB System 3 PSZ Occ Sch Saturday, !- Saturday Schedule:Day Name\n   *************  14618   Sp-PatRoom1_Mult10_Flr_4 Sys-3 Flr-3 Sch-H HPlcmt-south ZN NECB System 3 PSZ Occ Sch Default, !- Holiday Schedule:Day Name\n   *************  14619   Sp-PatRoom1_Mult10_Flr_4 Sys-3 Flr-3 Sch-H HPlcmt-south ZN NECB System 3 PSZ Occ Sch Summer Design Day, !- SummerDesignDay Schedule:Day Name\n   ** Warning ** IP: IDF line~14619 Alpha Argument length exceeds maximum, will be truncated=  Sp-PatRoom1_Mult10_Flr_4 Sys-3 Flr-3 Sch-H HPlcmt-south ZN NECB System 3 PSZ Occ Sch Summer Design Da\n   **   ~~~   ** Will be processed as Alpha=SP-PATROOM1_MULT10_FLR_4 SYS-3 FLR-3 SCH-H HPLCMT-SOUTH ZN NECB SYSTEM 3 PSZ OCC SCH SUMMER DESIGN DAY\n   ************* IDF Context for following error/warning message:\n   ************* Note -- lines truncated at 300 characters, if necessary...\n   *************  14609 Schedule:Week:Daily,\n   ************* indicated Name=Schedule:Week:Daily {3158b539-b648-4364-aac6-23f331092147}\n   ************* Only last 10 lines before error line shown.....\n   *************  14611   Sp-PatRoom1_Mult10_Flr_4 Sys-3 Flr-3 Sch-H HPlcmt-south ZN NECB System 3 PSZ Occ Sch Sunday, !- Sunday Schedule:Day Name\n   *************  14612   Sp-PatRoom1_Mult10_Flr_4 Sys-3 Flr-3 Sch-H HPlcmt-south ZN NECB System 3 PSZ Occ Sch Monday, !- Monday Schedule:Day Name\n   *************  14613   Sp-PatRoom1_Mult10_Flr_4 Sys-3 Flr-3 Sch-H HPlcmt-south ZN NECB System 3 PSZ Occ Sch Tuesday, !- Tuesday Schedule:Day Name\n   *************  14614   Sp-PatRoom1_Mult10_Flr_4 Sys-3 Flr-3 Sch-H HPlcmt-south ZN NECB System 3 PSZ Occ Sch Wednesday, !- Wednesday Schedule:Day Name\n   *************  14615   Sp-PatRoom1_Mult10_Flr_4 Sys-3 Flr-3 Sch-H HPlcmt-south ZN NECB System 3 PSZ Occ Sch Thursday, !- Thursday Schedule:Day Name\n   *************  14616   Sp-PatRoom1_Mult10_Flr_4 Sys-3 Flr-3 Sch-H HPlcmt-south ZN NECB System 3 PSZ Occ Sch Friday, !- Friday Schedule:Day Name\n   *************  14617   Sp-PatRoom1_Mult10_Flr_4 Sys-3 Flr-3 Sch-H HPlcmt-south ZN NECB System 3 PSZ Occ Sch Saturday, !- Saturday Schedule:Day Name\n   *************  14618   Sp-PatRoom1_Mult10_Flr_4 Sys-3 Flr-3 Sch-H HPlcmt-south ZN NECB System 3 PSZ Occ Sch Default, !- Holiday Schedule:Day Name\n   *************  14619   Sp-PatRoom1_Mult10_Flr_4 Sys-3 Flr-3 Sch-H HPlcmt-south ZN NECB System 3 PSZ Occ Sch Summer Design Day, !- SummerDesignDay Schedule:Day Name\n   *************  14620   Sp-PatRoom1_Mult10_Flr_4 Sys-3 Flr-3 Sch-H HPlcmt-south ZN NECB System 3 PSZ Occ Sch Winter Design Day, !- WinterDesignDay Schedule:Day Name\n   ** Warning ** IP: IDF line~14620 Alpha Argument length exceeds maximum, will be truncated=  Sp-PatRoom1_Mult10_Flr_4 Sys-3 Flr-3 Sch-H HPlcmt-south ZN NECB System 3 PSZ Occ Sch Winter Design Da\n   **   ~~~   ** Will be processed as Alpha=SP-PATROOM1_MULT10_FLR_4 SYS-3 FLR-3 SCH-H HPLCMT-SOUTH ZN NECB SYSTEM 3 PSZ OCC SCH WINTER DESIGN DAY\n   ************* IDF Context for following error/warning message:\n   ************* Note -- lines truncated at 300 characters, if necessary...\n   *************  14640 Schedule:Day:Interval,\n   ************* indicated Name=Sp-PatRoom1_Mult10_Flr_4 Sys-3 Flr-3 Sch-H HPlcmt-south ZN NECB System 3 PSZ Occ Sch Summer Design Day\n   ************* Only last 1 lines before error line shown.....\n   *************  14641   Sp-PatRoom1_Mult10_Flr_4 Sys-3 Flr-3 Sch-H HPlcmt-south ZN NECB System 3 PSZ Occ Sch Summer Design Day, !- Name\n   ** Warning ** IP: IDF line~14641 Alpha Argument length exceeds maximum, will be truncated=  Sp-PatRoom1_Mult10_Flr_4 Sys-3 Flr-3 Sch-H HPlcmt-south ZN NECB System 3 PSZ Occ Sch Summer Design Da\n   **   ~~~   ** Will be processed as Alpha=SP-PATROOM1_MULT10_FLR_4 SYS-3 FLR-3 SCH-H HPLCMT-SOUTH ZN NECB SYSTEM 3 PSZ OCC SCH SUMMER DESIGN DAY\n   ************* IDF Context for following error/warning message:\n   ************* Note -- lines truncated at 300 characters, if necessary...\n   *************  14647 Schedule:Day:Interval,\n   ************* indicated Name=Sp-PatRoom1_Mult10_Flr_4 Sys-3 Flr-3 Sch-H HPlcmt-south ZN NECB System 3 PSZ Occ Sch Winter Design Day\n   ************* Only last 1 lines before error line shown.....\n   *************  14648   Sp-PatRoom1_Mult10_Flr_4 Sys-3 Flr-3 Sch-H HPlcmt-south ZN NECB System 3 PSZ Occ Sch Winter Design Day, !- Name\n   ** Warning ** IP: IDF line~14648 Alpha Argument length exceeds maximum, will be truncated=  Sp-PatRoom1_Mult10_Flr_4 Sys-3 Flr-3 Sch-H HPlcmt-south ZN NECB System 3 PSZ Occ Sch Winter Design Da\n   **   ~~~   ** Will be processed as Alpha=SP-PATROOM1_MULT10_FLR_4 SYS-3 FLR-3 SCH-H HPLCMT-SOUTH ZN NECB SYSTEM 3 PSZ OCC SCH WINTER DESIGN DAY\n   ************* IDF Context for following error/warning message:\n   ************* Note -- lines truncated at 300 characters, if necessary...\n   *************  15502 Schedule:Week:Daily,\n   ************* indicated Name=Schedule:Week:Daily {fee13077-4ea0-4c80-b514-bde52e255040}\n   ************* Only last 10 lines before error line shown.....\n   *************  15503   Schedule:Week:Daily {fee13077-4ea0-4c80-b514-bde52e255040}, !- Name\n   *************  15504   Sp-PatRoom3_Mult10_Flr_3 Sys-3 Flr-2 Sch-H HPlcmt-east ZN NECB System 3 PSZ Occ Sch Sunday, !- Sunday Schedule:Day Name\n   *************  15505   Sp-PatRoom3_Mult10_Flr_3 Sys-3 Flr-2 Sch-H HPlcmt-east ZN NECB System 3 PSZ Occ Sch Monday, !- Monday Schedule:Day Name\n   *************  15506   Sp-PatRoom3_Mult10_Flr_3 Sys-3 Flr-2 Sch-H HPlcmt-east ZN NECB System 3 PSZ Occ Sch Tuesday, !- Tuesday Schedule:Day Name\n   *************  15507   Sp-PatRoom3_Mult10_Flr_3 Sys-3 Flr-2 Sch-H HPlcmt-east ZN NECB System 3 PSZ Occ Sch Wednesday, !- Wednesday Schedule:Day Name\n   *************  15508   Sp-PatRoom3_Mult10_Flr_3 Sys-3 Flr-2 Sch-H HPlcmt-east ZN NECB System 3 PSZ Occ Sch Thursday, !- Thursday Schedule:Day Name\n   *************  15509   Sp-PatRoom3_Mult10_Flr_3 Sys-3 Flr-2 Sch-H HPlcmt-east ZN NECB System 3 PSZ Occ Sch Friday, !- Friday Schedule:Day Name\n   *************  15510   Sp-PatRoom3_Mult10_Flr_3 Sys-3 Flr-2 Sch-H HPlcmt-east ZN NECB System 3 PSZ Occ Sch Saturday, !- Saturday Schedule:Day Name\n   *************  15511   Sp-PatRoom3_Mult10_Flr_3 Sys-3 Flr-2 Sch-H HPlcmt-east ZN NECB System 3 PSZ Occ Sch Default, !- Holiday Schedule:Day Name\n   *************  15512   Sp-PatRoom3_Mult10_Flr_3 Sys-3 Flr-2 Sch-H HPlcmt-east ZN NECB System 3 PSZ Occ Sch Summer Design Day, !- SummerDesignDay Schedule:Day Name\n   ** Warning ** IP: IDF line~15512 Alpha Argument length exceeds maximum, will be truncated=  Sp-PatRoom3_Mult10_Flr_3 Sys-3 Flr-2 Sch-H HPlcmt-east ZN NECB System 3 PSZ Occ Sch Summer Design Da\n   **   ~~~   ** Will be processed as Alpha=SP-PATROOM3_MULT10_FLR_3 SYS-3 FLR-2 SCH-H HPLCMT-EAST ZN NECB SYSTEM 3 PSZ OCC SCH SUMMER DESIGN DAY\n   ************* IDF Context for following error/warning message:\n   ************* Note -- lines truncated at 300 characters, if necessary...\n   *************  15502 Schedule:Week:Daily,\n   ************* indicated Name=Schedule:Week:Daily {fee13077-4ea0-4c80-b514-bde52e255040}\n   ************* Only last 10 lines before error line shown.....\n   *************  15504   Sp-PatRoom3_Mult10_Flr_3 Sys-3 Flr-2 Sch-H HPlcmt-east ZN NECB System 3 PSZ Occ Sch Sunday, !- Sunday Schedule:Day Name\n   *************  15505   Sp-PatRoom3_Mult10_Flr_3 Sys-3 Flr-2 Sch-H HPlcmt-east ZN NECB System 3 PSZ Occ Sch Monday, !- Monday Schedule:Day Name\n   *************  15506   Sp-PatRoom3_Mult10_Flr_3 Sys-3 Flr-2 Sch-H HPlcmt-east ZN NECB System 3 PSZ Occ Sch Tuesday, !- Tuesday Schedule:Day Name\n   *************  15507   Sp-PatRoom3_Mult10_Flr_3 Sys-3 Flr-2 Sch-H HPlcmt-east ZN NECB System 3 PSZ Occ Sch Wednesday, !- Wednesday Schedule:Day Name\n   *************  15508   Sp-PatRoom3_Mult10_Flr_3 Sys-3 Flr-2 Sch-H HPlcmt-east ZN NECB System 3 PSZ Occ Sch Thursday, !- Thursday Schedule:Day Name\n   *************  15509   Sp-PatRoom3_Mult10_Flr_3 Sys-3 Flr-2 Sch-H HPlcmt-east ZN NECB System 3 PSZ Occ Sch Friday, !- Friday Schedule:Day Name\n   *************  15510   Sp-PatRoom3_Mult10_Flr_3 Sys-3 Flr-2 Sch-H HPlcmt-east ZN NECB System 3 PSZ Occ Sch Saturday, !- Saturday Schedule:Day Name\n   *************  15511   Sp-PatRoom3_Mult10_Flr_3 Sys-3 Flr-2 Sch-H HPlcmt-east ZN NECB System 3 PSZ Occ Sch Default, !- Holiday Schedule:Day Name\n   *************  15512   Sp-PatRoom3_Mult10_Flr_3 Sys-3 Flr-2 Sch-H HPlcmt-east ZN NECB System 3 PSZ Occ Sch Summer Design Day, !- SummerDesignDay Schedule:Day Name\n   *************  15513   Sp-PatRoom3_Mult10_Flr_3 Sys-3 Flr-2 Sch-H HPlcmt-east ZN NECB System 3 PSZ Occ Sch Winter Design Day, !- WinterDesignDay Schedule:Day Name\n   ** Warning ** IP: IDF line~15513 Alpha Argument length exceeds maximum, will be truncated=  Sp-PatRoom3_Mult10_Flr_3 Sys-3 Flr-2 Sch-H HPlcmt-east ZN NECB System 3 PSZ Occ Sch Winter Design Da\n   **   ~~~   ** Will be processed as Alpha=SP-PATROOM3_MULT10_FLR_3 SYS-3 FLR-2 SCH-H HPLCMT-EAST ZN NECB SYSTEM 3 PSZ OCC SCH WINTER DESIGN DAY\n   ************* IDF Context for following error/warning message:\n   ************* Note -- lines truncated at 300 characters, if necessary...\n   *************  15533 Schedule:Day:Interval,\n   ************* indicated Name=Sp-PatRoom3_Mult10_Flr_3 Sys-3 Flr-2 Sch-H HPlcmt-east ZN NECB System 3 PSZ Occ Sch Summer Design Day\n   ************* Only last 1 lines before error line shown.....\n   *************  15534   Sp-PatRoom3_Mult10_Flr_3 Sys-3 Flr-2 Sch-H HPlcmt-east ZN NECB System 3 PSZ Occ Sch Summer Design Day, !- Name\n   ** Warning ** IP: IDF line~15534 Alpha Argument length exceeds maximum, will be truncated=  Sp-PatRoom3_Mult10_Flr_3 Sys-3 Flr-2 Sch-H HPlcmt-east ZN NECB System 3 PSZ Occ Sch Summer Design Da\n   **   ~~~   ** Will be processed as Alpha=SP-PATROOM3_MULT10_FLR_3 SYS-3 FLR-2 SCH-H HPLCMT-EAST ZN NECB SYSTEM 3 PSZ OCC SCH SUMMER DESIGN DAY\n   ************* IDF Context for following error/warning message:\n   ************* Note -- lines truncated at 300 characters, if necessary...\n   *************  15540 Schedule:Day:Interval,\n   ************* indicated Name=Sp-PatRoom3_Mult10_Flr_3 Sys-3 Flr-2 Sch-H HPlcmt-east ZN NECB System 3 PSZ Occ Sch Winter Design Day\n   ************* Only last 1 lines before error line shown.....\n   *************  15541   Sp-PatRoom3_Mult10_Flr_3 Sys-3 Flr-2 Sch-H HPlcmt-east ZN NECB System 3 PSZ Occ Sch Winter Design Day, !- Name\n   ** Warning ** IP: IDF line~15541 Alpha Argument length exceeds maximum, will be truncated=  Sp-PatRoom3_Mult10_Flr_3 Sys-3 Flr-2 Sch-H HPlcmt-east ZN NECB System 3 PSZ Occ Sch Winter Design Da\n   **   ~~~   ** Will be processed as Alpha=SP-PATROOM3_MULT10_FLR_3 SYS-3 FLR-2 SCH-H HPLCMT-EAST ZN NECB SYSTEM 3 PSZ OCC SCH WINTER DESIGN DAY\n   ************* IDF Context for following error/warning message:\n   ************* Note -- lines truncated at 300 characters, if necessary...\n   *************  15841 Schedule:Week:Daily,\n   ************* indicated Name=Schedule:Week:Daily {d424f379-3c95-4bbf-b645-cbca3963e704}\n   ************* Only last 10 lines before error line shown.....\n   *************  15842   Schedule:Week:Daily {d424f379-3c95-4bbf-b645-cbca3963e704}, !- Name\n   *************  15843   Sp-PatRoom3_Mult10_Flr_4 Sys-3 Flr-3 Sch-H HPlcmt-east ZN NECB System 3 PSZ Occ Sch Sunday, !- Sunday Schedule:Day Name\n   *************  15844   Sp-PatRoom3_Mult10_Flr_4 Sys-3 Flr-3 Sch-H HPlcmt-east ZN NECB System 3 PSZ Occ Sch Monday, !- Monday Schedule:Day Name\n   *************  15845   Sp-PatRoom3_Mult10_Flr_4 Sys-3 Flr-3 Sch-H HPlcmt-east ZN NECB System 3 PSZ Occ Sch Tuesday, !- Tuesday Schedule:Day Name\n   *************  15846   Sp-PatRoom3_Mult10_Flr_4 Sys-3 Flr-3 Sch-H HPlcmt-east ZN NECB System 3 PSZ Occ Sch Wednesday, !- Wednesday Schedule:Day Name\n   *************  15847   Sp-PatRoom3_Mult10_Flr_4 Sys-3 Flr-3 Sch-H HPlcmt-east ZN NECB System 3 PSZ Occ Sch Thursday, !- Thursday Schedule:Day Name\n   *************  15848   Sp-PatRoom3_Mult10_Flr_4 Sys-3 Flr-3 Sch-H HPlcmt-east ZN NECB System 3 PSZ Occ Sch Friday, !- Friday Schedule:Day Name\n   *************  15849   Sp-PatRoom3_Mult10_Flr_4 Sys-3 Flr-3 Sch-H HPlcmt-east ZN NECB System 3 PSZ Occ Sch Saturday, !- Saturday Schedule:Day Name\n   *************  15850   Sp-PatRoom3_Mult10_Flr_4 Sys-3 Flr-3 Sch-H HPlcmt-east ZN NECB System 3 PSZ Occ Sch Default, !- Holiday Schedule:Day Name\n   *************  15851   Sp-PatRoom3_Mult10_Flr_4 Sys-3 Flr-3 Sch-H HPlcmt-east ZN NECB System 3 PSZ Occ Sch Summer Design Day, !- SummerDesignDay Schedule:Day Name\n   ** Warning ** IP: IDF line~15851 Alpha Argument length exceeds maximum, will be truncated=  Sp-PatRoom3_Mult10_Flr_4 Sys-3 Flr-3 Sch-H HPlcmt-east ZN NECB System 3 PSZ Occ Sch Summer Design Da\n   **   ~~~   ** Will be processed as Alpha=SP-PATROOM3_MULT10_FLR_4 SYS-3 FLR-3 SCH-H HPLCMT-EAST ZN NECB SYSTEM 3 PSZ OCC SCH SUMMER DESIGN DAY\n   ************* IDF Context for following error/warning message:\n   ************* Note -- lines truncated at 300 characters, if necessary...\n   *************  15841 Schedule:Week:Daily,\n   ************* indicated Name=Schedule:Week:Daily {d424f379-3c95-4bbf-b645-cbca3963e704}\n   ************* Only last 10 lines before error line shown.....\n   *************  15843   Sp-PatRoom3_Mult10_Flr_4 Sys-3 Flr-3 Sch-H HPlcmt-east ZN NECB System 3 PSZ Occ Sch Sunday, !- Sunday Schedule:Day Name\n   *************  15844   Sp-PatRoom3_Mult10_Flr_4 Sys-3 Flr-3 Sch-H HPlcmt-east ZN NECB System 3 PSZ Occ Sch Monday, !- Monday Schedule:Day Name\n   *************  15845   Sp-PatRoom3_Mult10_Flr_4 Sys-3 Flr-3 Sch-H HPlcmt-east ZN NECB System 3 PSZ Occ Sch Tuesday, !- Tuesday Schedule:Day Name\n   *************  15846   Sp-PatRoom3_Mult10_Flr_4 Sys-3 Flr-3 Sch-H HPlcmt-east ZN NECB System 3 PSZ Occ Sch Wednesday, !- Wednesday Schedule:Day Name\n   *************  15847   Sp-PatRoom3_Mult10_Flr_4 Sys-3 Flr-3 Sch-H HPlcmt-east ZN NECB System 3 PSZ Occ Sch Thursday, !- Thursday Schedule:Day Name\n   *************  15848   Sp-PatRoom3_Mult10_Flr_4 Sys-3 Flr-3 Sch-H HPlcmt-east ZN NECB System 3 PSZ Occ Sch Friday, !- Friday Schedule:Day Name\n   *************  15849   Sp-PatRoom3_Mult10_Flr_4 Sys-3 Flr-3 Sch-H HPlcmt-east ZN NECB System 3 PSZ Occ Sch Saturday, !- Saturday Schedule:Day Name\n   *************  15850   Sp-PatRoom3_Mult10_Flr_4 Sys-3 Flr-3 Sch-H HPlcmt-east ZN NECB System 3 PSZ Occ Sch Default, !- Holiday Schedule:Day Name\n   *************  15851   Sp-PatRoom3_Mult10_Flr_4 Sys-3 Flr-3 Sch-H HPlcmt-east ZN NECB System 3 PSZ Occ Sch Summer Design Day, !- SummerDesignDay Schedule:Day Name\n   *************  15852   Sp-PatRoom3_Mult10_Flr_4 Sys-3 Flr-3 Sch-H HPlcmt-east ZN NECB System 3 PSZ Occ Sch Winter Design Day, !- WinterDesignDay Schedule:Day Name\n   ** Warning ** IP: IDF line~15852 Alpha Argument length exceeds maximum, will be truncated=  Sp-PatRoom3_Mult10_Flr_4 Sys-3 Flr-3 Sch-H HPlcmt-east ZN NECB System 3 PSZ Occ Sch Winter Design Da\n   **   ~~~   ** Will be processed as Alpha=SP-PATROOM3_MULT10_FLR_4 SYS-3 FLR-3 SCH-H HPLCMT-EAST ZN NECB SYSTEM 3 PSZ OCC SCH WINTER DESIGN DAY\n   ************* IDF Context for following error/warning message:\n   ************* Note -- lines truncated at 300 characters, if necessary...\n   *************  15872 Schedule:Day:Interval,\n   ************* indicated Name=Sp-PatRoom3_Mult10_Flr_4 Sys-3 Flr-3 Sch-H HPlcmt-east ZN NECB System 3 PSZ Occ Sch Summer Design Day\n   ************* Only last 1 lines before error line shown.....\n   *************  15873   Sp-PatRoom3_Mult10_Flr_4 Sys-3 Flr-3 Sch-H HPlcmt-east ZN NECB System 3 PSZ Occ Sch Summer Design Day, !- Name\n   ** Warning ** IP: IDF line~15873 Alpha Argument length exceeds maximum, will be truncated=  Sp-PatRoom3_Mult10_Flr_4 Sys-3 Flr-3 Sch-H HPlcmt-east ZN NECB System 3 PSZ Occ Sch Summer Design Da\n   **   ~~~   ** Will be processed as Alpha=SP-PATROOM3_MULT10_FLR_4 SYS-3 FLR-3 SCH-H HPLCMT-EAST ZN NECB SYSTEM 3 PSZ OCC SCH SUMMER DESIGN DAY\n   ************* IDF Context for following error/warning message:\n   ************* Note -- lines truncated at 300 characters, if necessary...\n   *************  15879 Schedule:Day:Interval,\n   ************* indicated Name=Sp-PatRoom3_Mult10_Flr_4 Sys-3 Flr-3 Sch-H HPlcmt-east ZN NECB System 3 PSZ Occ Sch Winter Design Day\n   ************* Only last 1 lines before error line shown.....\n   *************  15880   Sp-PatRoom3_Mult10_Flr_4 Sys-3 Flr-3 Sch-H HPlcmt-east ZN NECB System 3 PSZ Occ Sch Winter Design Day, !- Name\n   ** Warning ** IP: IDF line~15880 Alpha Argument length exceeds maximum, will be truncated=  Sp-PatRoom3_Mult10_Flr_4 Sys-3 Flr-3 Sch-H HPlcmt-east ZN NECB System 3 PSZ Occ Sch Winter Design Da\n   **   ~~~   ** Will be processed as Alpha=SP-PATROOM3_MULT10_FLR_4 SYS-3 FLR-3 SCH-H HPLCMT-EAST ZN NECB SYSTEM 3 PSZ OCC SCH WINTER DESIGN DAY\n   ************* IDF Context for following error/warning message:\n   ************* Note -- lines truncated at 300 characters, if necessary...\n   *************  16734 Schedule:Week:Daily,\n   ************* indicated Name=Schedule:Week:Daily {c0dff7d2-6a07-4ce9-853b-f06782087358}\n   ************* Only last 10 lines before error line shown.....\n   *************  16735   Schedule:Week:Daily {c0dff7d2-6a07-4ce9-853b-f06782087358}, !- Name\n   *************  16736   Sp-PatRoom5_Mult10_Flr_3 Sys-3 Flr-2 Sch-H HPlcmt-north ZN NECB System 3 PSZ Occ Sch Sunday, !- Sunday Schedule:Day Name\n   *************  16737   Sp-PatRoom5_Mult10_Flr_3 Sys-3 Flr-2 Sch-H HPlcmt-north ZN NECB System 3 PSZ Occ Sch Monday, !- Monday Schedule:Day Name\n   *************  16738   Sp-PatRoom5_Mult10_Flr_3 Sys-3 Flr-2 Sch-H HPlcmt-north ZN NECB System 3 PSZ Occ Sch Tuesday, !- Tuesday Schedule:Day Name\n   *************  16739   Sp-PatRoom5_Mult10_Flr_3 Sys-3 Flr-2 Sch-H HPlcmt-north ZN NECB System 3 PSZ Occ Sch Wednesday, !- Wednesday Schedule:Day Name\n   *************  16740   Sp-PatRoom5_Mult10_Flr_3 Sys-3 Flr-2 Sch-H HPlcmt-north ZN NECB System 3 PSZ Occ Sch Thursday, !- Thursday Schedule:Day Name\n   *************  16741   Sp-PatRoom5_Mult10_Flr_3 Sys-3 Flr-2 Sch-H HPlcmt-north ZN NECB System 3 PSZ Occ Sch Friday, !- Friday Schedule:Day Name\n   *************  16742   Sp-PatRoom5_Mult10_Flr_3 Sys-3 Flr-2 Sch-H HPlcmt-north ZN NECB System 3 PSZ Occ Sch Saturday, !- Saturday Schedule:Day Name\n   *************  16743   Sp-PatRoom5_Mult10_Flr_3 Sys-3 Flr-2 Sch-H HPlcmt-north ZN NECB System 3 PSZ Occ Sch Default, !- Holiday Schedule:Day Name\n   *************  16744   Sp-PatRoom5_Mult10_Flr_3 Sys-3 Flr-2 Sch-H HPlcmt-north ZN NECB System 3 PSZ Occ Sch Summer Design Day, !- SummerDesignDay Schedule:Day Name\n   ** Warning ** IP: IDF line~16744 Alpha Argument length exceeds maximum, will be truncated=  Sp-PatRoom5_Mult10_Flr_3 Sys-3 Flr-2 Sch-H HPlcmt-north ZN NECB System 3 PSZ Occ Sch Summer Design Da\n   **   ~~~   ** Will be processed as Alpha=SP-PATROOM5_MULT10_FLR_3 SYS-3 FLR-2 SCH-H HPLCMT-NORTH ZN NECB SYSTEM 3 PSZ OCC SCH SUMMER DESIGN DAY\n   ************* IDF Context for following error/warning message:\n   ************* Note -- lines truncated at 300 characters, if necessary...\n   *************  16734 Schedule:Week:Daily,\n   ************* indicated Name=Schedule:Week:Daily {c0dff7d2-6a07-4ce9-853b-f06782087358}\n   ************* Only last 10 lines before error line shown.....\n   *************  16736   Sp-PatRoom5_Mult10_Flr_3 Sys-3 Flr-2 Sch-H HPlcmt-north ZN NECB System 3 PSZ Occ Sch Sunday, !- Sunday Schedule:Day Name\n   *************  16737   Sp-PatRoom5_Mult10_Flr_3 Sys-3 Flr-2 Sch-H HPlcmt-north ZN NECB System 3 PSZ Occ Sch Monday, !- Monday Schedule:Day Name\n   *************  16738   Sp-PatRoom5_Mult10_Flr_3 Sys-3 Flr-2 Sch-H HPlcmt-north ZN NECB System 3 PSZ Occ Sch Tuesday, !- Tuesday Schedule:Day Name\n   *************  16739   Sp-PatRoom5_Mult10_Flr_3 Sys-3 Flr-2 Sch-H HPlcmt-north ZN NECB System 3 PSZ Occ Sch Wednesday, !- Wednesday Schedule:Day Name\n   *************  16740   Sp-PatRoom5_Mult10_Flr_3 Sys-3 Flr-2 Sch-H HPlcmt-north ZN NECB System 3 PSZ Occ Sch Thursday, !- Thursday Schedule:Day Name\n   *************  16741   Sp-PatRoom5_Mult10_Flr_3 Sys-3 Flr-2 Sch-H HPlcmt-north ZN NECB System 3 PSZ Occ Sch Friday, !- Friday Schedule:Day Name\n   *************  16742   Sp-PatRoom5_Mult10_Flr_3 Sys-3 Flr-2 Sch-H HPlcmt-north ZN NECB System 3 PSZ Occ Sch Saturday, !- Saturday Schedule:Day Name\n   *************  16743   Sp-PatRoom5_Mult10_Flr_3 Sys-3 Flr-2 Sch-H HPlcmt-north ZN NECB System 3 PSZ Occ Sch Default, !- Holiday Schedule:Day Name\n   *************  16744   Sp-PatRoom5_Mult10_Flr_3 Sys-3 Flr-2 Sch-H HPlcmt-north ZN NECB System 3 PSZ Occ Sch Summer Design Day, !- SummerDesignDay Schedule:Day Name\n   *************  16745   Sp-PatRoom5_Mult10_Flr_3 Sys-3 Flr-2 Sch-H HPlcmt-north ZN NECB System 3 PSZ Occ Sch Winter Design Day, !- WinterDesignDay Schedule:Day Name\n   ** Warning ** IP: IDF line~16745 Alpha Argument length exceeds maximum, will be truncated=  Sp-PatRoom5_Mult10_Flr_3 Sys-3 Flr-2 Sch-H HPlcmt-north ZN NECB System 3 PSZ Occ Sch Winter Design Da\n   **   ~~~   ** Will be processed as Alpha=SP-PATROOM5_MULT10_FLR_3 SYS-3 FLR-2 SCH-H HPLCMT-NORTH ZN NECB SYSTEM 3 PSZ OCC SCH WINTER DESIGN DAY\n   ************* IDF Context for following error/warning message:\n   ************* Note -- lines truncated at 300 characters, if necessary...\n   *************  16765 Schedule:Day:Interval,\n   ************* indicated Name=Sp-PatRoom5_Mult10_Flr_3 Sys-3 Flr-2 Sch-H HPlcmt-north ZN NECB System 3 PSZ Occ Sch Summer Design Day\n   ************* Only last 1 lines before error line shown.....\n   *************  16766   Sp-PatRoom5_Mult10_Flr_3 Sys-3 Flr-2 Sch-H HPlcmt-north ZN NECB System 3 PSZ Occ Sch Summer Design Day, !- Name\n   ** Warning ** IP: IDF line~16766 Alpha Argument length exceeds maximum, will be truncated=  Sp-PatRoom5_Mult10_Flr_3 Sys-3 Flr-2 Sch-H HPlcmt-north ZN NECB System 3 PSZ Occ Sch Summer Design Da\n   **   ~~~   ** Will be processed as Alpha=SP-PATROOM5_MULT10_FLR_3 SYS-3 FLR-2 SCH-H HPLCMT-NORTH ZN NECB SYSTEM 3 PSZ OCC SCH SUMMER DESIGN DAY\n   ************* IDF Context for following error/warning message:\n   ************* Note -- lines truncated at 300 characters, if necessary...\n   *************  16772 Schedule:Day:Interval,\n   ************* indicated Name=Sp-PatRoom5_Mult10_Flr_3 Sys-3 Flr-2 Sch-H HPlcmt-north ZN NECB System 3 PSZ Occ Sch Winter Design Day\n   ************* Only last 1 lines before error line shown.....\n   *************  16773   Sp-PatRoom5_Mult10_Flr_3 Sys-3 Flr-2 Sch-H HPlcmt-north ZN NECB System 3 PSZ Occ Sch Winter Design Day, !- Name\n   ** Warning ** IP: IDF line~16773 Alpha Argument length exceeds maximum, will be truncated=  Sp-PatRoom5_Mult10_Flr_3 Sys-3 Flr-2 Sch-H HPlcmt-north ZN NECB System 3 PSZ Occ Sch Winter Design Da\n   **   ~~~   ** Will be processed as Alpha=SP-PATROOM5_MULT10_FLR_3 SYS-3 FLR-2 SCH-H HPLCMT-NORTH ZN NECB SYSTEM 3 PSZ OCC SCH WINTER DESIGN DAY\n   ************* IDF Context for following error/warning message:\n   ************* Note -- lines truncated at 300 characters, if necessary...\n   *************  17073 Schedule:Week:Daily,\n   ************* indicated Name=Schedule:Week:Daily {02b8e6d6-dfef-4eab-8e7e-f19499e6752c}\n   ************* Only last 10 lines before error line shown.....\n   *************  17074   Schedule:Week:Daily {02b8e6d6-dfef-4eab-8e7e-f19499e6752c}, !- Name\n   *************  17075   Sp-PatRoom5_Mult10_Flr_4 Sys-3 Flr-3 Sch-H HPlcmt-north ZN NECB System 3 PSZ Occ Sch Sunday, !- Sunday Schedule:Day Name\n   *************  17076   Sp-PatRoom5_Mult10_Flr_4 Sys-3 Flr-3 Sch-H HPlcmt-north ZN NECB System 3 PSZ Occ Sch Monday, !- Monday Schedule:Day Name\n   *************  17077   Sp-PatRoom5_Mult10_Flr_4 Sys-3 Flr-3 Sch-H HPlcmt-north ZN NECB System 3 PSZ Occ Sch Tuesday, !- Tuesday Schedule:Day Name\n   *************  17078   Sp-PatRoom5_Mult10_Flr_4 Sys-3 Flr-3 Sch-H HPlcmt-north ZN NECB System 3 PSZ Occ Sch Wednesday, !- Wednesday Schedule:Day Name\n   *************  17079   Sp-PatRoom5_Mult10_Flr_4 Sys-3 Flr-3 Sch-H HPlcmt-north ZN NECB System 3 PSZ Occ Sch Thursday, !- Thursday Schedule:Day Name\n   *************  17080   Sp-PatRoom5_Mult10_Flr_4 Sys-3 Flr-3 Sch-H HPlcmt-north ZN NECB System 3 PSZ Occ Sch Friday, !- Friday Schedule:Day Name\n   *************  17081   Sp-PatRoom5_Mult10_Flr_4 Sys-3 Flr-3 Sch-H HPlcmt-north ZN NECB System 3 PSZ Occ Sch Saturday, !- Saturday Schedule:Day Name\n   *************  17082   Sp-PatRoom5_Mult10_Flr_4 Sys-3 Flr-3 Sch-H HPlcmt-north ZN NECB System 3 PSZ Occ Sch Default, !- Holiday Schedule:Day Name\n   *************  17083   Sp-PatRoom5_Mult10_Flr_4 Sys-3 Flr-3 Sch-H HPlcmt-north ZN NECB System 3 PSZ Occ Sch Summer Design Day, !- SummerDesignDay Schedule:Day Name\n   ** Warning ** IP: IDF line~17083 Alpha Argument length exceeds maximum, will be truncated=  Sp-PatRoom5_Mult10_Flr_4 Sys-3 Flr-3 Sch-H HPlcmt-north ZN NECB System 3 PSZ Occ Sch Summer Design Da\n   **   ~~~   ** Will be processed as Alpha=SP-PATROOM5_MULT10_FLR_4 SYS-3 FLR-3 SCH-H HPLCMT-NORTH ZN NECB SYSTEM 3 PSZ OCC SCH SUMMER DESIGN DAY\n   ************* IDF Context for following error/warning message:\n   ************* Note -- lines truncated at 300 characters, if necessary...\n   *************  17073 Schedule:Week:Daily,\n   ************* indicated Name=Schedule:Week:Daily {02b8e6d6-dfef-4eab-8e7e-f19499e6752c}\n   ************* Only last 10 lines before error line shown.....\n   *************  17075   Sp-PatRoom5_Mult10_Flr_4 Sys-3 Flr-3 Sch-H HPlcmt-north ZN NECB System 3 PSZ Occ Sch Sunday, !- Sunday Schedule:Day Name\n   *************  17076   Sp-PatRoom5_Mult10_Flr_4 Sys-3 Flr-3 Sch-H HPlcmt-north ZN NECB System 3 PSZ Occ Sch Monday, !- Monday Schedule:Day Name\n   *************  17077   Sp-PatRoom5_Mult10_Flr_4 Sys-3 Flr-3 Sch-H HPlcmt-north ZN NECB System 3 PSZ Occ Sch Tuesday, !- Tuesday Schedule:Day Name\n   *************  17078   Sp-PatRoom5_Mult10_Flr_4 Sys-3 Flr-3 Sch-H HPlcmt-north ZN NECB System 3 PSZ Occ Sch Wednesday, !- Wednesday Schedule:Day Name\n   *************  17079   Sp-PatRoom5_Mult10_Flr_4 Sys-3 Flr-3 Sch-H HPlcmt-north ZN NECB System 3 PSZ Occ Sch Thursday, !- Thursday Schedule:Day Name\n   *************  17080   Sp-PatRoom5_Mult10_Flr_4 Sys-3 Flr-3 Sch-H HPlcmt-north ZN NECB System 3 PSZ Occ Sch Friday, !- Friday Schedule:Day Name\n   *************  17081   Sp-PatRoom5_Mult10_Flr_4 Sys-3 Flr-3 Sch-H HPlcmt-north ZN NECB System 3 PSZ Occ Sch Saturday, !- Saturday Schedule:Day Name\n   *************  17082   Sp-PatRoom5_Mult10_Flr_4 Sys-3 Flr-3 Sch-H HPlcmt-north ZN NECB System 3 PSZ Occ Sch Default, !- Holiday Schedule:Day Name\n   *************  17083   Sp-PatRoom5_Mult10_Flr_4 Sys-3 Flr-3 Sch-H HPlcmt-north ZN NECB System 3 PSZ Occ Sch Summer Design Day, !- SummerDesignDay Schedule:Day Name\n   *************  17084   Sp-PatRoom5_Mult10_Flr_4 Sys-3 Flr-3 Sch-H HPlcmt-north ZN NECB System 3 PSZ Occ Sch Winter Design Day, !- WinterDesignDay Schedule:Day Name\n   ** Warning ** IP: IDF line~17084 Alpha Argument length exceeds maximum, will be truncated=  Sp-PatRoom5_Mult10_Flr_4 Sys-3 Flr-3 Sch-H HPlcmt-north ZN NECB System 3 PSZ Occ Sch Winter Design Da\n   **   ~~~   ** Will be processed as Alpha=SP-PATROOM5_MULT10_FLR_4 SYS-3 FLR-3 SCH-H HPLCMT-NORTH ZN NECB SYSTEM 3 PSZ OCC SCH WINTER DESIGN DAY\n   ************* IDF Context for following error/warning message:\n   ************* Note -- lines truncated at 300 characters, if necessary...\n   *************  17104 Schedule:Day:Interval,\n   ************* indicated Name=Sp-PatRoom5_Mult10_Flr_4 Sys-3 Flr-3 Sch-H HPlcmt-north ZN NECB System 3 PSZ Occ Sch Summer Design Day\n   ************* Only last 1 lines before error line shown.....\n   *************  17105   Sp-PatRoom5_Mult10_Flr_4 Sys-3 Flr-3 Sch-H HPlcmt-north ZN NECB System 3 PSZ Occ Sch Summer Design Day, !- Name\n   ** Warning ** IP: IDF line~17105 Alpha Argument length exceeds maximum, will be truncated=  Sp-PatRoom5_Mult10_Flr_4 Sys-3 Flr
[...]
hw/ft9OL0/1ZxnuZbC3tgI59hdRLuZpUuQwudUWWz8cHAyHp6db37nxDHCAAxzgAAc4wAEOcIADHOD8NXFEtpgVvwKLQKoPReAvFVEqA9CABjSgAQ1oQAMa0IAGNKABjZ7mvvyvWf9DcxMtJHCAAxzgAAc4wAEOcIADHOAAZxOcp/cGeuq9gZcL6r2Bfa/8C9vJye7u4SFIQQpSkIIUpCAFKUhBClKQghSkIH0dpL2S1M8p0m5J2u/3egd7IAUpSEEKUpCCFKQgBSlIQQpSkIL0dZD2FelZGhKkvcOS1PP29/t9kIIUpCAFKUhBClKQghSkIAUpSEH6Okh3Fenn6YIiPShJD4tj8BakIAUpSEEKUpCCFKQgBSlIQQpSkL4O0oEi/ZcMKNL9kvTdu+Fwfx+kIAUpSEEKUpCCFKQgBSlIQQpSkL4O0r3yzsRCUqR7JelwuLcHUpCCFKQgBSlIQQpSkIIUpCAFKUhfC+m+Iv2QUJ0Fe4OS9OCg1xsMQApSkIIUpCAFKUhBClKQghSkIAWpNdI1SpD6961aZw9uHuaRvJz6c+nm8iFvbb1PFmlWj7H885nvwpmMszCJI5mVHmpc7OyIkyAQvig9ifswn4osmUkR9GvOzO4mrj+fyzhoOUrb2a45YX24fp6nLefBaYu9ruFJy+KkXvOTsnwZyQqv48ejaZIW5zuRHBvQrnyMkzjv3MtwMs2Vj5skCpr7qObmct755OcXSTLbv/6wiHKve30Wpde74nKZdfqi+Ln493I07bwX7z9Fo5nSy3Lx+0fx8XT4Vn0rlzPRF58ufxfno5H66ta2boLf7GSjNJzn/yC/82YnCO++bSbPoZ0VvkQYHDsjtfqHxYD5YSzT6543cEQ5jMdOEGbzyF8ehXFU2Do3UTL6+pNDAxZeq2sQ+XJenK9GcufWv/OrT7VnquPOT9VKFcciCGfzSLqxvL+8m7ScH74B2Ra73W75T23oKb+Bn/uF46s/nMi/kZFz5ARy7BcTK+ZpMg4j6bQry/WDc+S53bZz50cLufp5pDJUcU6RdIbD01Pnsd3IT4/JT5/Jzy6TnwGTnz0mP/tMfg6Y/Bwy+fG6XI64VrTHtaQ9rjXtcS1qj2tVe1zL2uNa1x7Xwva4VnaPa2X32HI118ruca3sntHKFtliNnvxyupGO1oqAwM35BiZuSFHyMwNOT5mbsi4N3NDRr2ZGzLmzdyQEW/mhox3Mzf0Rmboh2kd09uYoR+mlUxvYoZ+mNYyvYUZ+mFazfQGZuiHaT3T25ehH668zLSe6b3L0E/z9Xwfxrn5tnWjPmruhxweQz/k8Bj6IYfH0A8Z7oZ+yHA39EOGu6EfMtwN/ZDhbuiH3r9MHXGtaHoHM3XEtabpPczUEdeqpncxU0dc65rex0wdca1seiczdcSWq7lWNr2ZmTpqvrKf/oZR+45hapvrvvhFr3oJMYNE7/tL9L+/xO73lxh8f4m97y+x//0lDr6/xOH3l3ixs38vDQvxrbkxy6dB39ni06BvevFp0Hd6+TTom8B8GvT9YT4N+tYxnwZ9V5lv/7MQ5z0b+7iFjbxnYSfvbbaV177KsVlZVb3rkUGCng02CXoy2CTouWCToMsqNgm6rGKToMsqNgm6rGKToMsqNgnNX675NOg//fFp0GUVnwZdVvFp0GUVnwZdVvFp0GUVnwZdVvFp0GUVnwZdVvHtfxbiXPMnfj4NCxu5pqzi09hsK699Y1azsqp6pRaDBD0bbBL0ZLBJ0HPBJkGXVWwSdFnFJkGXVWwSdFnFJkGXVWwSmrKKT4NOt3wadFnFp0GXVXwadFnFp0GXVXwadFnFp0GXVXwadFnFp0GXVXz7n4U415RVfBoWNnJNWcWnsdlWXvtikmZlVfXmEgYJejbYJOjJYJOg54JNgi6r2CTosopNgi6r2CTosopNgi6r2CQ0ZRWfBp1u+TTosopPgy6r+DTosopPgy6r+DTosopPgy6r+DTosopPgy6r+PY/C3GuKav4NCxs5Jqyik9js628tv97s7KqahDPIEHPBpsEPRlsEvRcsEnQZRWbBF1WsUnQZRWbBF1WsUnQZRWbhKas4tOg0y2fBl1W8WnQZRWfBl1W8WnQZRWfBl1W8WnQZRWfBl1W8WnQZRXf/mchzjVlFZ+GhY1cU1bxaWy2lde22W1WVlV9eBkk6Nlgk6Ang02Cngs2CbqsYpOgyyo2CbqsYpOgyyo2CbqsYpPQlFV8GnS65dOgyyo+Dbqs4tOgyyo+Dbqs4tOgyyo+Dbqs4tOgyyo+Dbqs4tv/LMS5pqzi07CwkWvKKj6Nzbby2m6Gzcqqqt0hgwQ9G2wS9GSwSdBzwSZBl1VsEnRZxSZBl1VsEnRZxSZBl1VsEtpma1wadLrl09A1suLS0PW44tLQtb/i0tD1fOPS0LWD49LQdYrj0tA1kePS0PWX49r/LMS5tisdl4aFjVxTVvFp1G/lX5p0eF01chbHIpb36w6yZePYVnY3aZcdYGtbxa67QWcyf5ss4iBrDbpt4XmDtuirn3qDZu1mHwqMpybXQTD0czlJ0uXJQ5hV3ZSfrr9By+nCwXkayPRioZobNz5RcSxfcnyQfrZIZYWh+jOvxv07t/uGGWaYYYYZZphhhhlmmGGGGWaYYYYZZphhhhlmmGGGGWaYYYYZZphhhhlmmGGGGWaYYYYZZphhhhlmmGGGGWaYYYYZZphhhvkvZV66yZ1M0zCQH3z1YK3ndv/P51XVo7HZy0djL2Uaymz1eK3TXj9API+S3I3CWNY+Ipt96znd+idrM7d89fw8ifw8TOICyslyOe/cyHGSSqfZk8+/yomMg5cXVH3W2uu2RV89udxVDzKrf5xIjnMFVuN67da9nsj8NM7V+BQS40U8Kklb2+KPGhdrQvl09lXts9zqCMeilU/DzM3KWWkmpI5nJ7nF+J36o2nrv8Cm3tb46tHxgn3l93qeZKFy+K74uMnVrA/l5htUaXJvhrTGCuNAqnjoeG3Ds9fH7aYnjkMZqfXWWo1pFSeTNFnMZSB+/FH8bfX5g3s99bPV8+8qwLafW5fftBYD4vqTyZnScCMZT/KpeCN64p/COYkiRxy9/EYWhSPZ6njbV90v27Xx9qcrSVLRui0upfuTuC1kVkt1pas++3uRccwnSB1qGa/8Xd1+cb/KpTg+Pq4GbzOPpdfVtN+aXur6uEml/3WTkx8NzzH9vhqv1dUdq2WtFsNqpZSNHNxrP8vCSSyDoWoRkV2VI/lls6FcT/R8kU1bm85FMaVH1XxuHklRdNTkKl31zU1VsjxNvspmOtV3N1VK5v4ozJfNpFZf3viqSom11KZe1onkZVrZJDyMk4861uH8MvGIjvBMvZmEW3PWx3a5qzb6/mNdTaGOnR3x6bfP4t/nv12Iy/OLz798/Fn8ev7zL0Px/vTitJmDsyJrywdflWgiT0SWpLmIF7NiHYxE2dIkE342KoqXMJ408Lgee+Xn2c7st8VN8+SSynyRxmLup5k8ixI/b/kq5W8XU/nss5vys0aDWV+iPZNdXUKd48fv2+nlqf4sw70M9tZWIMf+IsrFPE2KHCa32mLrh4OD4fD0dOs7N54BDnCAAxzgAAc4wAEOcIADnL8mjsgWs+JXYBFI9aEI/KUiSmUAGtCABjSgAQ1oQAMa0IAGNKDR09yX/zXrf2huooUEDnCAAxzgAAc4wAEOcIADHOBsgvP03kBPvTfwckG9N7DvlX9hOznZ3T08BClIQQpSkIIUpCAFKUhBClKQghSkr4O0V5L6OUXaLUn7/V7vYA+kIAUpSEEKUpCCFKQgBSlIQQpSkL4O0r4iPUtDgrR3WJJ63v5+vw9SkIIUpCAFKUhBClKQghSkIAUpSF8H6a4i/TxdUKQHJelhcQzeghSkIAUpSEEKUpCCFKQgBSlIQQrS10E6UKT/kgFFul+Svns3HO7vgxSkIAUpSEEKUpCCFKQgBSlIQQrS10G6V96ZWEiKdK8kHQ739kAKUpCCFKQgBSlIQQpSkIIUpCAF6Wsh3VekHxKqs2BvUJIeHPR6gwFIQQpSkIIUpCAFKUhBClKQghSkILVGukYJUv++Vevswc3DPJKXU38u3Vw+5K2t98kizeoxln8+8104k3EWJnEks9JDjYudHXESBMIXpSdxH+ZTkSUzKYJ+zZnZ3cT153MZBy1HaTvbNSesD9fP87TlPDhtsdc1PGlZnNRrflKWLyNZ4XX8eDRN0uJ8J5JjA9qVj3ES5517GU6mufJxk0RBcx/V3FzOO5+my+zzVKb+fHl9FqXXfXG5zDp9Ufzc6YnL0bQzFO8/RaNZ3hklqRS/fxQfT4dv1bdyORN98enyd3E+Gqmvbm3rJvfNTjZKw3n+D/I7b3aC8O7bZvIc2lnhS4TBsTNSK39YDJYfxjK97nl7jiiH8NgJwmwe+cujMI4KW+cmSkZff3JowMJrdQ0iX86L89Uo7tz6d371qfZMddz5qVql4lgE4WweSTeW95d3k5bzwzcg22K32y3/qQ075Tfwc79wfPWHE/k3MnKOnECO/UWUi3majMNIOu3Kcv3gHHlut+3c+dFCrn4eqexUnFMknOHw9NR5bDfy02Py02fys8vkZ8DkZ4/Jzz6TnwMmP4dMfrwulyOuFe1xLWmPa017XIva41rVHtey9rjWtce1sD2uld3jWtk9tlzNtbJ7XCu7Z7SyRbaYzV68rrrRjpbKwMANOUZmbsgRMnNDjo+ZGzLuzdyQUW/mhox5MzdkxJu5IePdzA29kRn6YVrH9DZm6IdpJdObmKEfprVMb2GGfphWM72BGfphWs/09mXohysvM61neu8y9NN8Pd+HcW6+bd2oj5r7IYfH0A85PIZ+yOEx9EOGu6EfMtwN/ZDhbuiHDHdDP2S4G/qh9y9TR1wrmt7BTB1xrWl6DzN1xLWq6V3M1BHXuqb3MVNHXCub3slMHbHlaq6VTW9mpo6ar+ynv1/Uvl+42f3G6gXEDBL0b7dsEvTvvWwS9G/EbBL0XSA2Cfr+EJsEfeeITYK+p8QmQd9tYpPQ3GLl07AQ35obs3waFiJcczuXT8NCjGtuAvNpWIhyza1jPg0Lca654cynYWMftxDnmjvYfBqbxXntaxyblVXVex4ZJOjZYJOgJ4NNgp4LNgk65bJJ0BmXTYJOuGwSdL5lk6DTLZuEpqzi07AQ35qyik/DQoRryio+DQsxrimr+DQsRLmmrOLTsBDnmrKKT8PGPm4hzjVlFZ/GZnFe+7asZmVV9TotBgl6Ntgk6Mlgk6Dngk2CTrlsEnTGZZOgEy6bBJ1v2STodMsmoSmr+DQsxLemrOLTsBDhmrKKT8NCjGvKKj4NC1GuKav4NCzEuaas4tOwsY9biHNNWcWnsVmc176UpFlZVb21hEGCng02CXoy2CTouWCToFMumwSdcdkk6ITLJkHnWzYJOt2ySWjKKj4NC/GtKav4NCxEuKas4tOwEOOasopPw0KUa8oqPg0Lca4pq/g0bOzjFuJcU1bxaWwW57W935uVVVVzeAYJejbYJOjJYJOg54JNgk65bBJ0xmWToBMumwSdb9kk6HTLJqEpq/g0LMS3pqzi07AQ4Zqyik/DQoxryio+DQtRrimr+DQsxLmmrOLTsLGPW4hzTVnFp7FZnNe22G1WVlU9eBkk6Nlgk6Ang02Cngs2CTrlsknQGZdNgk64bBJ0vmWToNMtm4SmrOLTsBDfmrKKT8NChGvKKj4NCzGuKav4NCxEuaas4tOwEOeasopPw8Y+biHONWUVn8ZmcV7bybBZWVW1OmSQ0PW5YZLQdcBhktD1xmGS0PWDYpLQdYpiktD1kGKS0HWXYpLQ9Z1iktA2W+PSsBDf2hZtXBoWIlzb2I1Lw0KMa9vBcWlYiHJtEzkuDQtxrm09x6VhYx+3EOfaXnZcGvVx/qVJh9dVE2dxLGJ5v+4gWzaObWV3k3bZAba2Vey6E3Qm87fJIg6y1qDbFp43aIu++qk3aNZu9qHAeGpwHQRDP5eTJF2ePIRZ1Un56fobtJsuHJyngUwvFqqxceMTFcfyJccH6WeLVFYYqjfzaty/c6tvmGGGGWaYYYYZZphhhhlmmGGGGWaYYYYZZphhhhlmmGGGGWaYYYYZZphhhhlmmGGGGWaYYYYZZphhhhlmmGGGGWaYYYYZZpj/Uualm9zJNA0D+cFXD9Z6bvf/fF5VPRqbvXw09lKmocxWj9c67fUDxPMoyd0ojGXtI7LZt57TrX+yNnPLV8/Pk8jPwyQuoJwsl/POjRwnqXSaPfn8q5zIOHh5QdVnrb1uW/TVk8td9SCz+seJ5DhXYDWu127d64nMT+NcjU8hMV7Eo5K0tS3+qHGxJpRPZ1/VPsutjnAsWvk0zNysnJVmQup4dpJbjN+pP5q2/gts6m2Nrx4dL9hXfq/nSRYqh++Kj5tczfpQbr5BlSb3ZkhrrDAOpIqHjtc2PHt93G564jiUkVpvrdWYVnEySZPFXAbixx/F31afP7jXUz9bPf+uAmz7uXX5TWsxIK4/mZwpDTeS8SSfijeiJ/4pnJMocsTRy29kUTiSrY63fdX9sl0bb3+6kiQVrdviUro/idtCZrVUV7rqs78XGcd8gtShlvHK39XtF/erXIrj4+Nq8DbzWHpdTfut6aWuj5tU+l83OfnR8BzT76vxWl3dsVrWajGsVkrZyMG99rMsnMQyGKoWEdlVOZJfNhvK9UTPF9m0telcFFN6VM3n5pEURUdNrtJV39xUJcvT5KtsplN9d1OlZO6PwnzZTGr15Y2vqpRYS23qZZ1IXqaVTcLDOPmoYx3OLxOP6AjP1JtJuDVnfWyXu2qj7z/W1RTq2NkRn377LP59/tuFuDy/+PzLx5/Fr+c//zIU708vTps5OCuytnzwVYkm8kRkSZqLeDEr1sFIlC1NMuFno6J4CeNJA4/rsVd+nu3MflvcNE8uqcwXaSzmfprJsyjx85avUv52MZXPPrspP2s0mPUl2jPZ1SXUOX78vp1enurPMtzLYG9tBXLsL6JczNOkyGFyqy22fjg4GA5PT7e+c+MZ4AAHOMABDnCAAxzgAAc4wPlr4ohsMSt+BRaBVB+KwF8qolQGoAENaEADGtCABjSgAQ1oQAMaPc19+V+z/ofmJlpI4AAHOMABDnCAAxzgAAc4wAHOJjhP7w301HsDLxfUewP7XvkXtpOT3d3DQ5CCFKQgBSlIQQpSkIIUpCAFKUhB+jpIeyWpn1Ok3ZK03+/1DvZAClKQghSkIAUpSEEKUpCCFKQgBenrIO0r0rM0JEh7hyWp5+3v9/sgBSlIQQpSkIIUpCAFKUhBClKQgvR1kO4q0s/TBUV6UJIeFsfgLUhBClKQghSkIAUpSEEKUpCCFKQgfR2kA0X6LxlQpPsl6bt3w+H+PkhBClKQghSkIAUpSEEKUpCCFKQgfR2ke+WdiYWkSPdK0uFwbw+kIP1Pe+fb3KiRrfH391N0SFVGrpWwQJb/ZZwtR2NncisTp+xJUruuKRcWLQkPBhUg26qUv/ulEfJaGTd0w4HEex9eTCY64nl+NH26T4J0BFKQghSkIAUpSEEKUpCCFKQgfS2ke4L0QyjrLGgPM9L9fdseDkEKUpCCFKQgBSlIQQpSkIIUpCAFaWukaxQ3cu47pWIPZuIlPr+YOXNuJvwh6bx5Hy6iuBxj+eWZ77xbHsReGPg8zhRKJLa32bHrModlSuzeS2YsDm85cwclZ8Z3U9OZz3ngdgzhbWyVnLA+TCdJoo7xYHTZbl/zpGV6kq1+Upwsfb7C6znBeBZG6fmGzycatLnGJAyS3j33prNEaFyHvquusbo3F/PeueN66cycLq9O/ehqh10s496ApX9P/7wYz3rv2ftf/PFt0huHEWf//pn9fDL6Xrwr4bdswH65+Dc7G4/FW99sFd3at9vxOPLmyXfS97zddr27l8PSc+RiqRbz3CNjLOb9KB0qxwt4dGVbewbLBvDIcL147jvLQy/w01jv2g/Hn7815ICp6uoaWLKcp+eLMdy+ce6c1auFZ4rjzonEHGVHzPVu5z43A35/cTftGF+/ANllO/1+9kdp0gld10mcVPjyD8N3rrlvHBounzgLP2HzKJx4Pje6q8jVg3Fomf2ucef4C24cDofm4ODZMRh2jbFYqlKJdPUZjU5OjMeukqzdjOygGdmdZmSHzcjuNiO714zsfjOyB83IWv2GdBvKM6uhRLMayjSroVSzGso1q6FksxrKNquhdLMayje7oXyzm9rXGso3u6F8s+vkG4sXt7cbPwpepXKIuKuhqjq+eqqqo6unqjq2eqqqK5mequo6pqequorpqaquYXqqqiuYnqpywaAp20x2KZcLmrLN5JdysaAp20yGKZcKmrLN5JhyoaAp20yWKZcJmrIN7WHNZJlyjaApWznL7r0gqV0eXIt3qMuqDq2mrOrQasqqDq2mrOoCpimruoBpyqouYJqyqguYpqzqAqYpq1wn6Oo2lGfKlYKubkOZplwr6Oo2lGvK1YKubkPZplwv6Oo2lG/KFYOublP7WkP5plw06Orq5dsnlQcX+ZNJdsQCfr9+MJI9D+nEd9Nu9mCj9AnI+vFmzJPvw0Xgxp1hv8ssa9hlA/E3e6j2FOUhxXh6auu6Iyfh0zBaHj948erx4NNYKDxDTQXOIpdH5wvxtE75RMGx3OT4wJ14EfEVhnjgmN+Duk+FswdSm1YXPPJ4nOOmTvkNmfthYoqnZKWW8UvXXU4am9nEm4e+k3hhkEIZccLnvWs+CSNuqM2kn/iUB+7mBa1e6+yms2AgZoJ4qGaJP/KHrqXPo9ey5tWUJydBIsYntZgsgnFG2tlifyg8dRWE/Onsy9LcEIc3YZ1k5sXpvBbnqRmJ49lJZjp+J8541vkPsK7aGj9/xpjrXs3D2BOC79KXVa5mfQiZF6ii8F4PaY3lBS4Xiduzuppnr4+bqidOPO6L+dbJx3SVJ9MoXMy5y775hn2Vv/5gXs2cOF9PRIJtPY8uX4ymA2I60+mp8DB9HkyTGXvLbPZPZhz7vsEON98R+96Yd3rW1mX/01Zpvn1xJWHEOjfppfS/ZTepTT5Vc1/x2j+OmKV/g8QhpnGud3nzyfzM0+Xt6Gg1eNUUM9X8tt/oXur6uI6487nKyY+a5+i+X4xXfnVHYlqLyZDPlGxjNK9WnyjibvaZovgyG8lP1YZyfaPni3jWqXov0lt6uLqf1TPJ9w9VrtIU76zqEidR+Jmr+azeW9UpnDtjL1mqWeVvrnxVmcXaqqrKeiHZXFaqpIf24iOOdTpvLjysxyxdNZ10U2d97Ga7qtL7H8tqCnFsb7Nffv3I/nX26zm7ODv/+OPPP7Cfzn74ccTen5yfqAmcpqs2f3BEicaSkMVhWkgHi9t0HoxZViLGzInHafHiBVMFxfXYC51nO7PTZdfqi0vEk0UUsLkTxfzUD52k44glfyu9lc9eu85eUxrM8hLtmW1+CWXCj3/BJz//9MQ2/3ineAD7l3wQFTjAAQ5wgAMc4AAHOMABDnBePc6Xn3wRRBF3QQMa0IAGNKABDWhAAxrQgAY0xTRffCZQ0IiP+AEHOMABDnCAAxzgAAc4wAEOcP7Cfosf+e2cR06yiDjrnG6h4+Lfq+PiYj73l+zYi5i4Ua+kZ+L+a+iZuI+eidqtDdAzUV8WPRPRM1G/tQF6JlbTRc9E9ExEz0T0TETPRPRMfEkWPRPRMxE9E7XLBPRM1JdFz0T0TETPRN0yAT0Tq+miZyJ6JqJnInomvvDgAj0TX+BAz0T0TGTomaiGhZ6J6JlY5UDPRHGgZyJ6JmYHeiYWvxM9E8sFxIGeia+jtQhwgAMc4AAHOMABDnCAAxzgvHqcv1nHEdCABjSgAQ1oQAMa0IAGNKB5PTT/bzqdAAc4wAEOcIADHOAABzjAAU51P/RMfPlAz8RVz0RmvZKuiQevoWviQWtdE7O/V23PRKQzINLZIdIZEunsEunsEensE+kcEOlsdBWoJUQ1oy2qKW1RzWmLalJbVLPaoprWFtW8tqgmtkU1s22qmW2TrdVUM9ummtm21sxW7+a3IVW9fV8NGekIVW/QV0NGmvfVW/DVkJHmfPUmezVkpPleo41eHR2ieSzfxmp0xqujQzSV5XtYjWZ3dXSIZrN8A6vRv67OOkg0n+W7V42WdHV0iOazfOuq3mVuQ6ZGW7k6OtLhqdE4ro6ONN1rtIaroyNN9xrN3+roSNO9Tnu3WkJUM1q+g9Xp2FZLiGpSyzexOk3YaglRzWv5Planr1qtlZFqZsu3sjqt0moJUc1s+W72hdAvkRdGXrJkFuuxzsUi2BJ9qHZ7/+sEvb7Vy/7+jo97A0u2zfU3/kPv+Hhn5+CAwMJu3mLQvMVO8xbD5i12m7fYa95iv3mLg+YtNnb2pjxayG+rhQS3Wshwq4UUt1rIcauFJLdayHKrhTS3Wshzu4U8t9vYx1vIc7uFPLer5bmdeTiJzKOvVlYNBra9v0tgIb8bZBbym0FmIb8XZBbyJZfMQr7iklnIF1wyC/l6S2YhX27JLArKKjqPFvK7oKyi82ghwwvKKjqPFnK8oKyi82ghywvKKjqPFvK8oKyi82hjH28hzwvKKjqPank+EB6nkSfxsA/UyirL2tsbDAgs5HeDzEJ+M8gs5PeCzEK+5JJZyFdcMgv5gktmIV9vySzkn40isyj4QCCdh/wTVXQe8g9b0XnIP4dF5yH/iBadh/xziXQe8o8s0nnIP81I5yH/oCOdRwt5XlBW0Xm0sY+3sJEXlFV0HtW28h3h8XG2kHnsq5VV4jeXht8TWMjvBpmF/GaQWcjvBZmFvKwis5CXVWQW8rKKzEJeVpFZyJdbMouCsorOQ15W0XnIyyo6D3lZRechL6voPORlFZ2HvKyi85CXVXQe8rKKzqOFPC8oq+g82tjHW9jIC8oqOo9qW/lQePzOXZnHnlpZ9e7daLS3R2AhvxtkFvKbQWYhvxdkFvKyisxCXlaRWcjLKjILeVlFZiFfbsksCsoqOg95WUXnIS+r6DzkZRWdh7ysovOQl1V0HvKyis5DXlbRecjLKjqPFvK8oKyi82hjH29hIy8oq+g8qm3lu1nptuAyj121smo02t0lsZDfDTIL+c0gs5DfCzILeVlFZiEvq8gs5GUVmYW8rCKzkC+3ZBYFZRWdh7ysovOQl1V0HvKyis5DXlbRecjLKjoPeVlF5yEvq+g85GUVnUcLeV5QVtF5tLGPt7CRF5RVdB7VtvI94fEhlH0s3h6qlVX7+7Y9HBJYyO8GmYX8ZpBZyO8FmYW8rCKzkJdVZBbysorMQl5WkVkU9Z0isihstkblUdStisqjqJEVlUdRjysqj6L2V1QeRT3fqDyK2sFReRR1iqPyKGoiR+XRQp4XlFV0Hm3s4y1s5AVlFZ1H+Vb+SaXDa96ImR2xgN+vO8hmjWM78d20m3WALW0Vu+7mHPPk+3ARuHFn2O8yyxp22UD8zR6qtZt9SDGeOlG77shJ+DSMlscPXrzqhfx0/Qoto1OBs8jl0flCtCZWPlFwLDc5PnAnXkR8hSG6K+fj3nBPboQRRhhhhBFGGGGEEUYYYYQRRhhhhBFGGGGEEUYYYYQRRhhhhBFGGGGEEUYYYYQRRhhhhBFGGGGEEUYYYYQRRhhhhBFGGGGE/6vCSzO841HkufyDI75Ya5n9mt9XFV+NjTe/GnvBI4/H+ddrje76C8RzP0xM3wt46Vdk45e+p1v+zdrYzH56fh76TuKFQQplxAmf9675JIy4ofbN55/4lAfu5gWtXuvs9rtsIL653BdfZBZ/GD6fJAKsRHota15NeXISJGJ8UovJIhhnpJ0t9keJxJqQP519WfpdbnF4E9ZJZl5sxtldUTMSx7OTzHT8TpzxrPMfYF21Nb746njKnutezcPYE4Lv0pdVrmZ9CJkXqKLwXg9pjeUFLhf50LO6mmevj5uqJ0487ov51snHdJUn0yhczLnLvvmGfZW//mBezZw4//67SLCt59Hli9F0QExnOj0VHqbPg2kyY2+Zzf7JjGPfN9jh5jti3xvzTs/auux/2irNty+uJIxY5ya9lP637Ca1yadq7ite+0e64ujfIHGIaZzrXd58Mj/zJTs6OloNXjXFTDW/7Te6l7o+riPufK5y8qPmObrvF+OVX92RmNZiMuQzJWvkYF45cexNA+6ORIuI+DIbyU/VhnJ9o+eLeNapei/SW3q4up/VM8n3D1Wu0hTvrOoSJ1H4mav5rN5b1SmcO2MvWapZ5W+ufFWZxdqqqsp6IdlcVqqkh/biI451Om8uPKzHLF01nXRTZ33sZruq0vsfy2oKcWxvs19+/cj+dfbrObs4O//4488/sJ/OfvhxxN6fnJ+oCZymqzZ/cESJxpKQxWGUsGBxm86DMctamsTMicdp8eIFUwXF9dgLnWc7s9Nl1+qLS8STRRSwuRPF/NQPnaTjiCV/K72Vz167zl5TGszyEu2ZbX4JZcKPzXZ6eao/s3TPkr3zxuUTZ+EnbB6F6RrG33TZm6/390ejk5M3DTeeAQ5wgAMc4AAHOMABDnCAA5z/ThwWL27T/wRmLhcvMtdZCqKIu6ABDWhAAxrQgAY0oAENaEADmmKa++yjWX+iufYXHDjAAQ5wgAMc4AAHOMABDnCAUwXn6XcDLfG7gRcL2e8GDqzsCdvx8c7OwQFIQQpSkIIUpCAFKUhBClKQghSkIH0dpHZG6iQy0n5GOhjY9v4uSEEKUpCCFKQgBSlIQQpSkIIUpCB9HaQDQXoaeRJS+yAjtay9vcEApCAFKUhBClKQghSkIAUpSEEKUpC+DtIdQfpxtpCR7mekB+kx/B6kIAUpSEEKUpCCFKQgBSlIQQpSkL4O0qEg/Z27MtK9jPTdu9Fobw+kIAUpSEEKUpCCFKQgBSlIQQpSkL4O0t3s/0wsuIx0NyMdjXZ3QQpSkIIUpCAFKUhBClKQghSkIAXpayHdE6QfQllnQXuYke7v2/ZwCFKQghSkIAUpSEEKUpCCFKQgBSlIWyNdo7iRc98pFXswEy/x+cXMmXMz4Q9J5837cBHF5RjLL898593yIPbCwOdxplAisb3Njl2XOSxTYvdeMmNxeMuZOyg5M76bms58zgO3YwhvY6vkhPVhOkkSdYwHo8t2+5onLdOTbPWT4mTp8xVezwnGszBKzzd8PtGgzTUmYZD07rk3nSVC4zr0XXWN1b357fi31QCf8xl3Emaxs/GYXYxnb7aKbtPb7XgcefPkO+l73m673t3LYek5crFUi3nukTEWc3iUXrbjBTy6su2+wbLBODJcL577zvLQC/w01rv2w/Hnbw05YKq6ugaWLOfp+WI8tm+cO2f1auGZ4rhzIjHf2BFzvdu5z82A31/cTTvG1y9AdtlOv5/9UZpAQtd1EicVvvzD8J1r7huHhssnzsJP2DwKJ57Pje4qcvVgHFpmv2vcOf6C538fi3UmPSddOkajkxPjsaukYxPpDIh0doh0hkQ6u0Q6e0Q6+0Q6B0Q6Vp9KiGpGW1RT2qKa0xbVpLaoZrVFNa0tqnltUU1si2pm21Qz2yZbq6lmtk01s22tmc3ixe3txg9PK+1oEXc1ZKRjpCcjHSE9Gen46MlI815PRpr1ejLSnNeTkWa8now03/Vk5BuZpg7RPJZvY5o6RDNZvolp6hDNZfkWpqlDNJvlG5imDtF8lm9fmjpU6zLRfJbvXZo66vP53gsS/W3rWrykriMdHk0d6fBo6kiHR1NHmu6aOtJ019SRprumjjTdNXWk6a6pI9+/dIWoZrR8B9MVoprT8j1MV4hqVst3MV0hqnkt38d0hahmtnwn0xUiW6upZrZ8M9MVUp/ZT08iSn8pWLbN9Tf+Q2/1U8IEFnbzFoPmLXaatxg2b7HbvMVe8xb7zVscNG+xsbM35dFCflstJLjVQoZbLaS41UKOWy0kudVCllstpLnVQp7bLeS53cY+3kKe2y3kuV0tz0t/kFGtrFr9YiOBhfxukFnIbwaZhfxekFnIl1wyC/mKS2YhX3DJLOTrLZmFfLklsygoq+g8WsjvgrKKzqOFDC8oq+g8WsjxgrKKzqOFLC8oq+g8WsjzgrKKzqONfbyFPC8oq+g8quV56e9eqZVVqx/GIrCQ3w0yC/nNILOQ3wsyC/mSS2YhX3HJLOQLLpmFfL0ls5B/NorMouADgXQe8k9U0XnIP2xF5yH/HBadh/wjWnQe8s8l0nnIP7JI5yH/NCOdh/yDjnQeLeR5wccj6TxayPOCD1XSebSwkxeUVUUepT8volZWrX5/hMBCXlaRWchvBpmF/F6QWcjLKjILeVlFZiEvq8gs5GUVmYV8uSWzKCir6Dzkyy2dh3y5pfOQl1V0HvKyis5DXlbRecjLKjoPeVlF5yEvq+g8WsjzgrKKzqOFPC8oq+g8WtjJC8qqIo/SLu5qZdWqzTuBhbysIrOQ3wwyC/m9ILOQl1VkFvKyisxCXlaRWcjLKjIL+XJLZlFQVtF5yJdbOg/5ckvnIS+r6DzkZRWdh7ysovOQl1V0HvKyis5DXlbRebSQ5wVlFZ1HC3leUFbRebSwkxeUVUUepc1y1cqqVTddAgt5WUVmIb8ZZBbye0FmIS+ryCzkZRWZhbysIrOQl1VkFvLllsyioKyi85Avt3Qe8uWWzkNeVtF5yMsqOg95WUXnIS+r6DzkZRWdh7ysovNoIc8Lyio6jxbyvKCsovNoYScvKKuKPEp7EqqVVaumhQQW8rKKzEJ+M8gs5PeCzEJeVpFZyMsqMgt5WUVmIS+ryCyK+k4RWRQ2W6PykC+3dB5FjayoPIp6XFF5FLW/ovIo6vlG5VHUDo7Ko6hTHJVHURM5Ko8W8ryw9RyVRwt5XtiwjsqjhZ28oKxae3xS6fCat2NmRyzg9+sOslnj2E58N+1mHWBLW8WuezrHPPk+XARu3Bn2u8yyhl02EH+zh2rtZh9SjKdW1a47chI+DaPl8YMXr3oiP12/QuPoVOAscnl0vhAtipVPFBzLTY4P3IkXEV9hiC7L+bg33LQbYYQRRhhhhBFGGGGEEUYYYYQRRhhhhBFGGGGEEUYYYYQRRhhhhBFGGGGEEUYYYYQRRhhhhBFGGGGEEUYYYYQRRhhhhBFGGOH/qvDSDO94FHku/+CIL9ZaZr/m91XFV2Pjza/GXvDI43H+9Vqju/4C8dwPE9P3Al76Fdn4pe/pln+zNjazn56fh76TeGGQQhlxwue9az4JI26offP5Jz7lgbt5QavXOrv9LhuIby73xReZxR+GzyeJACuRXsuaV1OenASJGJ/UYrIIxhlpZ4v9USKxJuRPZ1+WfpdbHN6EdZKZF5txdlfUjMTx7CQzHb8TZzzr/AdYV22NL746nrLnulfzMPaE4Lv0ZZWrWR9C5gWqKLzXQ1pjeYHLRT70rK7m2evjpuqJE4/7Yr518jFd5ck0Chdz7rJvvmFf5a8/mFczJ86//y4SbOt5dPliNB0Q05lOT4WH6fNgmszYW2azfzLj2PcNdrj5jtj3xrzTs7Yu+5+2SvPtiysJI9a5SS+l/y27SW3yqZr7itf+ka44+jdIHGIa53qXN5/Mz3zJjo6OVoNXTTFTzW/7je6lro/riDufq5z8qHmO7vvFeOVXdySmtZgM+UzJGjmYV04ce9OAuyPRIiK+zEbyU7WhXN/o+SKedarei/SWHq7uZ/VM8v1Dlas0xTurusRJFH7maj6r91Z1CufO2EuWalb5mytfVWaxtqqqsl5INpeVKumhvfiIY53OmwsP6zFLV00n3dRZH7vZrqr0/seymkIc29vsl18/sn+d/XrOLs7OP/748w/sp7Mffhyx9yfnJ2oCp+mqzR8cUaKxJGRxGCUsWNym82DMspYmMXPicVq8eMFUQXE99kLn2c7sdNm1+uIS8WQRBWzuRDE/9UMn6Thiyd9Kb+Wz166z15QGs7xEe2abX0KZ8GOznV6e6s8s3bNk77xx+cRZ+AmbR2G6hvE3Xfbm6/390ejk5E3DjWeAAxzgAAc4wAEOcIADHOAA578Th8WL2/Q/gZnLxYvMdZaCKOIuaEADGtCABjSgAQ1oQAMa0ICmmOY++2jWn2iu/QUHDnCAAxzgAAc4wAEOcIADHOBUwXn63UBL/G7gxUL2u4EDK3vCdny8s3NwAFKQghSkIAUpSEEKUpCCFKQgBSlIXwepnZE6iYy0n5EOBra9vwtSkIIUpCAFKUhBClKQghSkIAUpSF8H6UCQnkaehNQ+yEgta29vMAApSEEKUpCCFKQgBSlIQQpSkIIUpK+DdEeQfpwtZKT7GelBegy/BylIQQpSkIIUpCAFKUhBClKQghSkr4N0KEh/566MdC8jffduNNrbAylIQQpSkIIUpCAFKUhBClKQghSkr4N0N/s/EwsuI93NSEej3V2QghSkIAUpSEEKUpCCFKQgBSlIQfpaSPcE6YdQ1lnQHmak+/u2PRyCFKQgBSlIQQpSkIIUpCAFKUhBCtLWSNcobuTcd0rFHszES3x+MXPm3Ez4Q9J58z5cRHE5xvLLM995tzyIvTDweZwplEhsb7Nj12UOy5TYvZfMWBzecuYOSs6M76amM5/zwO0YwtvYKjlhfZhOkkQd48Host2+5knL9CRb/aQ4Wfp8hddzgvEsjNLzDZ9PNGhzjUkYJL177k1nidC4Dn1XXWN1b347/m01wOd8xp2EnY3H7GI8e7NVdJPebsfjyJsn30nf83bb9e5eDkvPkYulWsxzj4yxmMGj9KIdL+DRlW1bBsuG4shwvXjuO8tDL/DTWO/aD8efvzXkgKnq6hpYspyn54vR2L5x7pzVq4VniuPOicRsY0fM9W7nPjcDfn9xN+0YX78A2WU7/X72R2n6CF3XSZxU+PIPw3euuW8cGi6fOAs/YfMonHg+N7qryNWDcWiZ/a5x5/gLbhzuHpgHz479g64xFmtOqpAuI6PRyYnx2FVStRtRHTSiutOI6rAR1d1GVPcaUd1vRPWgEVWr34xsM9llNZNeVjP5ZTWTYFYzGWY1k2JWMzlmNZNkVjNZZjeTZXZDe1gzWWY3k2V2jSxj8eL2duNnvCtUCBF3NUQVx1ZPVHFk9UQVx1VPVHHt0hNVXLn0RBXXLT1RxVVLT1RxzdITVS0MNFUbySnVskBTtZGsUi0KNFUbySvVkkBTtZHMUi0INFUbyS3VckBTtZn9qpHcUq0FNFWr5ta9FyR1y4Br8QZ1VcVh1VRVHFZNVcVh1VRVXLI0VRWXLE1VxSVLU1VxydJUVVyyNFVV6wFd2WayS7Ui0JVtJr9UawJd2WYyTLUq0JVtJsdU6wJd2WayTLUy0JVtaA9rJstUiwNdWa0s+6TywCF/NsiOWMDv1w80sucYnfhu2s0eSJQ+uVg/YIx58n24CNy4M+x3mWUNu2wg/mYP1Z5+PKQYT89NXXfkJHwaRsvjBy9ePaB7GgqFp5ipwFnk8uh8IZ6XKZ8oOJabHB+4Ey8ivsIQj/zyW1D3uWz2IGnT6oJHHo9z3NQpvyFzP0xM8XSr1DJ+6brLSWMzm3fz0HcSLwxSKCNO+Lx3zSdhxA21mfQTn/LA3byg1Wud3XQWDMRMEA/DLPFH/tiz9InwWta8mvLkJEjE+KQWk0Uwzkg7W+wPheeegpA/nX1Zmhvi8Cask8y8OJ3X4jw1I3E8O8lMx+/EGc86/wHWVVvj588Gc92reRh7QvBd+rLK1awPIfMCVRTe6yGtsbzA5SJxe1ZX8+z1cVP1xInHfTHfOvmYrvJkGoWLOXfZN9+wr/LXH8yrmRPn64lIsK3n0eWL0XRATGc6PRUeps+DaTJjb5nN/smMY9832OHmO2LfG/NOz9q67H/aKs23L64kjFjnJr2U/rfsJrXJp2ruK177xxGz9G+QOMQ0zvUubz6Zn3m6vB0drQavmmKmmt/2G91LXR/XEXc+Vzn5UfMc3feL8cqv7khMazEZ8pmSbYzm1eozPdzNPtUTX2Yj+anaUK5v9HwRzzpV70V6Sw9X97N6Jvn+ocpVmuKdVV3iJAo/czWf1XurOoVzZ+wlSzWr/M2VryqzWFtVVVkvJJvLSpX00F58xLFO582Fh/WYpaumk27qrI/dbFdVev9jWU0hju1t9suvH9m/zn49Zxdn5x9//PkH9tPZDz+O2PuT8xM1gdN01eYPjijRWBKyOEwL6WBxm86DMctKxJg58TgtXrxgqqC4Hnuh82xndrrsWn1xiXiyiAI2d6KYn/qhk3QcseRvpbfy2WvX2WtKg1leoj2zzS+hTPjxL/js5Z8ewOYfsBQPVP+Sj4ICBzjAAQ5wgAMc4AAHOMABzqvH+fIDLoIo4i5oQAMa0IAGNKABDWhAAxrQgKaY5ouPBAoa8RE/4AAHOMABDnCAAxzgAAc4wAHOX9jx8CO/nfPISRYRZ53TLfQ8/Fv1PPzdETPuPc/+cXx77fEgYeKWic6H3F2k499je/3TV9IE0X4NTRDt1pogZl89rdqEiUhnQKSzQ6QzJNLZJdLZI9LZJ9I5INLZ6C5QS4hqRltUU9qimtMW1aS2qGa1RTWtLap5bVFNbItqZttUM9smW6upZrZNNbNtrZmt3rRvQ6p6m74aMtIRqt6Kr4aMNO+rt9urISPN+eot9WrISPO9Rtu8OjpE81i+jdVohldHh2gqy/ewGi3u6ugQzWb5BlajcV2ddZBoPst3rxrt6OroEM1n+dZVvcnchkyNtnJ1dKTDU6N1XB0dabrXaA9XR0ea7jVawNXRkaZ7nTZvtYSoZrR8B6vTvK2WENWklm9idVqy1RKimtfyfaxOo7VaKyPVzJZvZXXap9USoprZ8t0MTdFeRVM0hBFGGGGEEUYYYYQRRhhhhBFGGGGE/07hpRne8SjyXP7BEf+jyjL7aIr/7ErQFP/pQFN8rQNN8dEUX+NAU/w/H2iK/+cDTfE1DzTFR1P8Fw80xQcOcIADHOAABzjAAQ5wgAMc4LyGlpKgAQ1oQAMa0IAGNKABDWhA83po/t+0sgQOcIADHOAABzjAAQ5wgAOc6n5/QVP8d94tD2IvDHwex2iJ//dqiR9Gn9nJZOKNPR6Ml0+N8NttgZ+/+0+R5/++/vvqn0/q+V+e/nEdukvxz1ly63/3P/8HNt68dg=="
               },
               {
                  "name" : "annual_peak_electric_demand",
                  "units" : "kW",
                  "value" : 1880.05971
               },
               {
                  "name" : "first_year_capital_cost",
                  "units" : "$",
                  "value" : 0
               },
               {
                  "name" : "annual_utility_cost",
                  "units" : "$",
                  "value" : 0
               },
               {
                  "name" : "total_lifecycle_cost",
                  "units" : "$",
                  "value" : 0
               }
            ],
            "step_warnings" : [ "A table in Annual Overview section returned false and was skipped." ]
         }
      }
   ],
   "updated_at" : "20170710T184152Z",
   "weather_file" : "USA_CO_Denver.Intl.AP.725650_TMY3.epw"
}
