{
   "completed_at" : "20170710T185401Z",
   "completed_status" : "Success",
   "created_at" : "2017-07-10 18:37:22 +0000",
   "current_step" : 5,
   "description" : "",
   "eplusout_err" : "Program Version,EnergyPlus, Version 8.7.0-78a111df4a, YMD=2017.07.10 18:46,IDD_Version 8.7.0\n   ************* IDF Context for following error/warning message:\n   ************* Note -- lines truncated at 300 characters, if necessary...\n   *************      5 Building,\n   ************* indicated Name=NECB 2011-SecondarySchool-NECB HDD Method-CAN_MB_Churchill.719130_CWEC.epw created: 2017-07-10 18:37:30 +0000\n   ************* Only last 1 lines before error line shown.....\n   *************      6   NECB 2011-SecondarySchool-NECB HDD Method-CAN_MB_Churchill.719130_CWEC.epw created: 2017-07-10 18:37:30 +0000, !- Name\n   ** Warning ** IP: IDF line~6 Alpha Argument length exceeds maximum, will be truncated=  NECB 2011-SecondarySchool-NECB HDD Method-CAN_MB_Churchill.719130_CWEC.epw created: 2017-07-10 18:37:30 +000\n   **   ~~~   ** Will be processed as Alpha=NECB 2011-SECONDARYSCHOOL-NECB HDD METHOD-CAN_MB_CHURCHILL.719130_CWEC.EPW CREATED: 2017-07-10 18:37:30 +0000\n   ************* IDF Context for following error/warning message:\n   ************* Note -- lines truncated at 300 characters, if necessary...\n   *************    602 Schedule:Week:Daily,\n   ************* indicated Name=Schedule:Week:Daily {8022ead7-1b31-476a-8b2f-2c1db13bc5c5}\n   ************* Only last 10 lines before error line shown.....\n   *************    603   Schedule:Week:Daily {8022ead7-1b31-476a-8b2f-2c1db13bc5c5}, !- Name\n   *************    604   Sp-Auditorium_ZN_1_FLR_1 Sys-3 Flr-2 Sch-C HPlcmt-north ZN NECB System 3 PSZ Occ Sch Sunday, !- Sunday Schedule:Day Name\n   *************    605   Sp-Auditorium_ZN_1_FLR_1 Sys-3 Flr-2 Sch-C HPlcmt-north ZN NECB System 3 PSZ Occ Sch Monday, !- Monday Schedule:Day Name\n   *************    606   Sp-Auditorium_ZN_1_FLR_1 Sys-3 Flr-2 Sch-C HPlcmt-north ZN NECB System 3 PSZ Occ Sch Tuesday, !- Tuesday Schedule:Day Name\n   *************    607   Sp-Auditorium_ZN_1_FLR_1 Sys-3 Flr-2 Sch-C HPlcmt-north ZN NECB System 3 PSZ Occ Sch Wednesday, !- Wednesday Schedule:Day Name\n   *************    608   Sp-Auditorium_ZN_1_FLR_1 Sys-3 Flr-2 Sch-C HPlcmt-north ZN NECB System 3 PSZ Occ Sch Thursday, !- Thursday Schedule:Day Name\n   *************    609   Sp-Auditorium_ZN_1_FLR_1 Sys-3 Flr-2 Sch-C HPlcmt-north ZN NECB System 3 PSZ Occ Sch Friday, !- Friday Schedule:Day Name\n   *************    610   Sp-Auditorium_ZN_1_FLR_1 Sys-3 Flr-2 Sch-C HPlcmt-north ZN NECB System 3 PSZ Occ Sch Saturday, !- Saturday Schedule:Day Name\n   *************    611   Sp-Auditorium_ZN_1_FLR_1 Sys-3 Flr-2 Sch-C HPlcmt-north ZN NECB System 3 PSZ Occ Sch Default, !- Holiday Schedule:Day Name\n   *************    612   Sp-Auditorium_ZN_1_FLR_1 Sys-3 Flr-2 Sch-C HPlcmt-north ZN NECB System 3 PSZ Occ Sch Summer Design Day, !- SummerDesignDay Schedule:Day Name\n   ** Warning ** IP: IDF line~612 Alpha Argument length exceeds maximum, will be truncated=  Sp-Auditorium_ZN_1_FLR_1 Sys-3 Flr-2 Sch-C HPlcmt-north ZN NECB System 3 PSZ Occ Sch Summer Design Da\n   **   ~~~   ** Will be processed as Alpha=SP-AUDITORIUM_ZN_1_FLR_1 SYS-3 FLR-2 SCH-C HPLCMT-NORTH ZN NECB SYSTEM 3 PSZ OCC SCH SUMMER DESIGN DAY\n   ************* IDF Context for following error/warning message:\n   ************* Note -- lines truncated at 300 characters, if necessary...\n   *************    602 Schedule:Week:Daily,\n   ************* indicated Name=Schedule:Week:Daily {8022ead7-1b31-476a-8b2f-2c1db13bc5c5}\n   ************* Only last 10 lines before error line shown.....\n   *************    604   Sp-Auditorium_ZN_1_FLR_1 Sys-3 Flr-2 Sch-C HPlcmt-north ZN NECB System 3 PSZ Occ Sch Sunday, !- Sunday Schedule:Day Name\n   *************    605   Sp-Auditorium_ZN_1_FLR_1 Sys-3 Flr-2 Sch-C HPlcmt-north ZN NECB System 3 PSZ Occ Sch Monday, !- Monday Schedule:Day Name\n   *************    606   Sp-Auditorium_ZN_1_FLR_1 Sys-3 Flr-2 Sch-C HPlcmt-north ZN NECB System 3 PSZ Occ Sch Tuesday, !- Tuesday Schedule:Day Name\n   *************    607   Sp-Auditorium_ZN_1_FLR_1 Sys-3 Flr-2 Sch-C HPlcmt-north ZN NECB System 3 PSZ Occ Sch Wednesday, !- Wednesday Schedule:Day Name\n   *************    608   Sp-Auditorium_ZN_1_FLR_1 Sys-3 Flr-2 Sch-C HPlcmt-north ZN NECB System 3 PSZ Occ Sch Thursday, !- Thursday Schedule:Day Name\n   *************    609   Sp-Auditorium_ZN_1_FLR_1 Sys-3 Flr-2 Sch-C HPlcmt-north ZN NECB System 3 PSZ Occ Sch Friday, !- Friday Schedule:Day Name\n   *************    610   Sp-Auditorium_ZN_1_FLR_1 Sys-3 Flr-2 Sch-C HPlcmt-north ZN NECB System 3 PSZ Occ Sch Saturday, !- Saturday Schedule:Day Name\n   *************    611   Sp-Auditorium_ZN_1_FLR_1 Sys-3 Flr-2 Sch-C HPlcmt-north ZN NECB System 3 PSZ Occ Sch Default, !- Holiday Schedule:Day Name\n   *************    612   Sp-Auditorium_ZN_1_FLR_1 Sys-3 Flr-2 Sch-C HPlcmt-north ZN NECB System 3 PSZ Occ Sch Summer Design Day, !- SummerDesignDay Schedule:Day Name\n   *************    613   Sp-Auditorium_ZN_1_FLR_1 Sys-3 Flr-2 Sch-C HPlcmt-north ZN NECB System 3 PSZ Occ Sch Winter Design Day, !- WinterDesignDay Schedule:Day Name\n   ** Warning ** IP: IDF line~613 Alpha Argument length exceeds maximum, will be truncated=  Sp-Auditorium_ZN_1_FLR_1 Sys-3 Flr-2 Sch-C HPlcmt-north ZN NECB System 3 PSZ Occ Sch Winter Design Da\n   **   ~~~   ** Will be processed as Alpha=SP-AUDITORIUM_ZN_1_FLR_1 SYS-3 FLR-2 SCH-C HPLCMT-NORTH ZN NECB SYSTEM 3 PSZ OCC SCH WINTER DESIGN DAY\n   ************* IDF Context for following error/warning message:\n   ************* Note -- lines truncated at 300 characters, if necessary...\n   *************    633 Schedule:Day:Interval,\n   ************* indicated Name=Sp-Auditorium_ZN_1_FLR_1 Sys-3 Flr-2 Sch-C HPlcmt-north ZN NECB System 3 PSZ Occ Sch Summer Design Day\n   ************* Only last 1 lines before error line shown.....\n   *************    634   Sp-Auditorium_ZN_1_FLR_1 Sys-3 Flr-2 Sch-C HPlcmt-north ZN NECB System 3 PSZ Occ Sch Summer Design Day, !- Name\n   ** Warning ** IP: IDF line~634 Alpha Argument length exceeds maximum, will be truncated=  Sp-Auditorium_ZN_1_FLR_1 Sys-3 Flr-2 Sch-C HPlcmt-north ZN NECB System 3 PSZ Occ Sch Summer Design Da\n   **   ~~~   ** Will be processed as Alpha=SP-AUDITORIUM_ZN_1_FLR_1 SYS-3 FLR-2 SCH-C HPLCMT-NORTH ZN NECB SYSTEM 3 PSZ OCC SCH SUMMER DESIGN DAY\n   ************* IDF Context for following error/warning message:\n   ************* Note -- lines truncated at 300 characters, if necessary...\n   *************    640 Schedule:Day:Interval,\n   ************* indicated Name=Sp-Auditorium_ZN_1_FLR_1 Sys-3 Flr-2 Sch-C HPlcmt-north ZN NECB System 3 PSZ Occ Sch Winter Design Day\n   ************* Only last 1 lines before error line shown.....\n   *************    641   Sp-Auditorium_ZN_1_FLR_1 Sys-3 Flr-2 Sch-C HPlcmt-north ZN NECB System 3 PSZ Occ Sch Winter Design Day, !- Name\n   ** Warning ** IP: IDF line~641 Alpha Argument length exceeds maximum, will be truncated=  Sp-Auditorium_ZN_1_FLR_1 Sys-3 Flr-2 Sch-C HPlcmt-north ZN NECB System 3 PSZ Occ Sch Winter Design Da\n   **   ~~~   ** Will be processed as Alpha=SP-AUDITORIUM_ZN_1_FLR_1 SYS-3 FLR-2 SCH-C HPLCMT-NORTH ZN NECB SYSTEM 3 PSZ OCC SCH WINTER DESIGN DAY\n   ************* IDF Context for following error/warning message:\n   ************* Note -- lines truncated at 300 characters, if necessary...\n   *************   2680 Schedule:Week:Daily,\n   ************* indicated Name=Schedule:Week:Daily {d1d62f9e-6734-4ecd-a09e-b08d2f2512cc}\n   ************* Only last 10 lines before error line shown.....\n   *************   2681   Schedule:Week:Daily {d1d62f9e-6734-4ecd-a09e-b08d2f2512cc}, !- Name\n   *************   2682   Sp-Bathrooms_ZN_1_FLR_2 Sys-3 Flr-1 Sch-D HPlcmt-north ZN NECB System 3 PSZ Occ Sch Sunday, !- Sunday Schedule:Day Name\n   *************   2683   Sp-Bathrooms_ZN_1_FLR_2 Sys-3 Flr-1 Sch-D HPlcmt-north ZN NECB System 3 PSZ Occ Sch Monday, !- Monday Schedule:Day Name\n   *************   2684   Sp-Bathrooms_ZN_1_FLR_2 Sys-3 Flr-1 Sch-D HPlcmt-north ZN NECB System 3 PSZ Occ Sch Tuesday, !- Tuesday Schedule:Day Name\n   *************   2685   Sp-Bathrooms_ZN_1_FLR_2 Sys-3 Flr-1 Sch-D HPlcmt-north ZN NECB System 3 PSZ Occ Sch Wednesday, !- Wednesday Schedule:Day Name\n   *************   2686   Sp-Bathrooms_ZN_1_FLR_2 Sys-3 Flr-1 Sch-D HPlcmt-north ZN NECB System 3 PSZ Occ Sch Thursday, !- Thursday Schedule:Day Name\n   *************   2687   Sp-Bathrooms_ZN_1_FLR_2 Sys-3 Flr-1 Sch-D HPlcmt-north ZN NECB System 3 PSZ Occ Sch Friday, !- Friday Schedule:Day Name\n   *************   2688   Sp-Bathrooms_ZN_1_FLR_2 Sys-3 Flr-1 Sch-D HPlcmt-north ZN NECB System 3 PSZ Occ Sch Saturday, !- Saturday Schedule:Day Name\n   *************   2689   Sp-Bathrooms_ZN_1_FLR_2 Sys-3 Flr-1 Sch-D HPlcmt-north ZN NECB System 3 PSZ Occ Sch Default, !- Holiday Schedule:Day Name\n   *************   2690   Sp-Bathrooms_ZN_1_FLR_2 Sys-3 Flr-1 Sch-D HPlcmt-north ZN NECB System 3 PSZ Occ Sch Summer Design Day, !- SummerDesignDay Schedule:Day Name\n   ** Warning ** IP: IDF line~2690 Alpha Argument length exceeds maximum, will be truncated=  Sp-Bathrooms_ZN_1_FLR_2 Sys-3 Flr-1 Sch-D HPlcmt-north ZN NECB System 3 PSZ Occ Sch Summer Design Da\n   **   ~~~   ** Will be processed as Alpha=SP-BATHROOMS_ZN_1_FLR_2 SYS-3 FLR-1 SCH-D HPLCMT-NORTH ZN NECB SYSTEM 3 PSZ OCC SCH SUMMER DESIGN DAY\n   ************* IDF Context for following error/warning message:\n   ************* Note -- lines truncated at 300 characters, if necessary...\n   *************   2680 Schedule:Week:Daily,\n   ************* indicated Name=Schedule:Week:Daily {d1d62f9e-6734-4ecd-a09e-b08d2f2512cc}\n   ************* Only last 10 lines before error line shown.....\n   *************   2682   Sp-Bathrooms_ZN_1_FLR_2 Sys-3 Flr-1 Sch-D HPlcmt-north ZN NECB System 3 PSZ Occ Sch Sunday, !- Sunday Schedule:Day Name\n   *************   2683   Sp-Bathrooms_ZN_1_FLR_2 Sys-3 Flr-1 Sch-D HPlcmt-north ZN NECB System 3 PSZ Occ Sch Monday, !- Monday Schedule:Day Name\n   *************   2684   Sp-Bathrooms_ZN_1_FLR_2 Sys-3 Flr-1 Sch-D HPlcmt-north ZN NECB System 3 PSZ Occ Sch Tuesday, !- Tuesday Schedule:Day Name\n   *************   2685   Sp-Bathrooms_ZN_1_FLR_2 Sys-3 Flr-1 Sch-D HPlcmt-north ZN NECB System 3 PSZ Occ Sch Wednesday, !- Wednesday Schedule:Day Name\n   *************   2686   Sp-Bathrooms_ZN_1_FLR_2 Sys-3 Flr-1 Sch-D HPlcmt-north ZN NECB System 3 PSZ Occ Sch Thursday, !- Thursday Schedule:Day Name\n   *************   2687   Sp-Bathrooms_ZN_1_FLR_2 Sys-3 Flr-1 Sch-D HPlcmt-north ZN NECB System 3 PSZ Occ Sch Friday, !- Friday Schedule:Day Name\n   *************   2688   Sp-Bathrooms_ZN_1_FLR_2 Sys-3 Flr-1 Sch-D HPlcmt-north ZN NECB System 3 PSZ Occ Sch Saturday, !- Saturday Schedule:Day Name\n   *************   2689   Sp-Bathrooms_ZN_1_FLR_2 Sys-3 Flr-1 Sch-D HPlcmt-north ZN NECB System 3 PSZ Occ Sch Default, !- Holiday Schedule:Day Name\n   *************   2690   Sp-Bathrooms_ZN_1_FLR_2 Sys-3 Flr-1 Sch-D HPlcmt-north ZN NECB System 3 PSZ Occ Sch Summer Design Day, !- SummerDesignDay Schedule:Day Name\n   *************   2691   Sp-Bathrooms_ZN_1_FLR_2 Sys-3 Flr-1 Sch-D HPlcmt-north ZN NECB System 3 PSZ Occ Sch Winter Design Day, !- WinterDesignDay Schedule:Day Name\n   ** Warning ** IP: IDF line~2691 Alpha Argument length exceeds maximum, will be truncated=  Sp-Bathrooms_ZN_1_FLR_2 Sys-3 Flr-1 Sch-D HPlcmt-north ZN NECB System 3 PSZ Occ Sch Winter Design Da\n   **   ~~~   ** Will be processed as Alpha=SP-BATHROOMS_ZN_1_FLR_2 SYS-3 FLR-1 SCH-D HPLCMT-NORTH ZN NECB SYSTEM 3 PSZ OCC SCH WINTER DESIGN DAY\n   ************* IDF Context for following error/warning message:\n   ************* Note -- lines truncated at 300 characters, if necessary...\n   *************   2711 Schedule:Day:Interval,\n   ************* indicated Name=Sp-Bathrooms_ZN_1_FLR_2 Sys-3 Flr-1 Sch-D HPlcmt-north ZN NECB System 3 PSZ Occ Sch Summer Design Day\n   ************* Only last 1 lines before error line shown.....\n   *************   2712   Sp-Bathrooms_ZN_1_FLR_2 Sys-3 Flr-1 Sch-D HPlcmt-north ZN NECB System 3 PSZ Occ Sch Summer Design Day, !- Name\n   ** Warning ** IP: IDF line~2712 Alpha Argument length exceeds maximum, will be truncated=  Sp-Bathrooms_ZN_1_FLR_2 Sys-3 Flr-1 Sch-D HPlcmt-north ZN NECB System 3 PSZ Occ Sch Summer Design Da\n   **   ~~~   ** Will be processed as Alpha=SP-BATHROOMS_ZN_1_FLR_2 SYS-3 FLR-1 SCH-D HPLCMT-NORTH ZN NECB SYSTEM 3 PSZ OCC SCH SUMMER DESIGN DAY\n   ************* IDF Context for following error/warning message:\n   ************* Note -- lines truncated at 300 characters, if necessary...\n   *************   2718 Schedule:Day:Interval,\n   ************* indicated Name=Sp-Bathrooms_ZN_1_FLR_2 Sys-3 Flr-1 Sch-D HPlcmt-north ZN NECB System 3 PSZ Occ Sch Winter Design Day\n   ************* Only last 1 lines before error line shown.....\n   *************   2719   Sp-Bathrooms_ZN_1_FLR_2 Sys-3 Flr-1 Sch-D HPlcmt-north ZN NECB System 3 PSZ Occ Sch Winter Design Day, !- Name\n   ** Warning ** IP: IDF line~2719 Alpha Argument length exceeds maximum, will be truncated=  Sp-Bathrooms_ZN_1_FLR_2 Sys-3 Flr-1 Sch-D HPlcmt-north ZN NECB System 3 PSZ Occ Sch Winter Design Da\n   **   ~~~   ** Will be processed as Alpha=SP-BATHROOMS_ZN_1_FLR_2 SYS-3 FLR-1 SCH-D HPLCMT-NORTH ZN NECB SYSTEM 3 PSZ OCC SCH WINTER DESIGN DAY\n   ************* IDF Context for following error/warning message:\n   ************* Note -- lines truncated at 300 characters, if necessary...\n   *************   3379 Schedule:Day:Interval,\n   ************* indicated Name=Sp-Corner_Class_1_Pod_1_ZN_1_FLR_1 Sys-3 Flr-2 Sch-D HPlcmt-south ZN NECB System 3 PSZ Occ Sch Sunday\n   ************* Only last 1 lines before error line shown.....\n   *************   3380   Sp-Corner_Class_1_Pod_1_ZN_1_FLR_1 Sys-3 Flr-2 Sch-D HPlcmt-south ZN NECB System 3 PSZ Occ Sch Sunday, !- Name\n   ** Warning ** IP: IDF line~3380 Alpha Argument length exceeds maximum, will be truncated=  Sp-Corner_Class_1_Pod_1_ZN_1_FLR_1 Sys-3 Flr-2 Sch-D HPlcmt-south ZN NECB System 3 PSZ Occ Sch Sunda\n   **   ~~~   ** Will be processed as Alpha=SP-CORNER_CLASS_1_POD_1_ZN_1_FLR_1 SYS-3 FLR-2 SCH-D HPLCMT-SOUTH ZN NECB SYSTEM 3 PSZ OCC SCH SUNDAY\n   ************* IDF Context for following error/warning message:\n   ************* Note -- lines truncated at 300 characters, if necessary...\n   *************   3386 Schedule:Day:Interval,\n   ************* indicated Name=Sp-Corner_Class_1_Pod_1_ZN_1_FLR_1 Sys-3 Flr-2 Sch-D HPlcmt-south ZN NECB System 3 PSZ Occ Sch Monday\n   ************* Only last 1 lines before error line shown.....\n   *************   3387   Sp-Corner_Class_1_Pod_1_ZN_1_FLR_1 Sys-3 Flr-2 Sch-D HPlcmt-south ZN NECB System 3 PSZ Occ Sch Monday, !- Name\n   ** Warning ** IP: IDF line~3387 Alpha Argument length exceeds maximum, will be truncated=  Sp-Corner_Class_1_Pod_1_ZN_1_FLR_1 Sys-3 Flr-2 Sch-D HPlcmt-south ZN NECB System 3 PSZ Occ Sch Monda\n   **   ~~~   ** Will be processed as Alpha=SP-CORNER_CLASS_1_POD_1_ZN_1_FLR_1 SYS-3 FLR-2 SCH-D HPLCMT-SOUTH ZN NECB SYSTEM 3 PSZ OCC SCH MONDAY\n   ************* IDF Context for following error/warning message:\n   ************* Note -- lines truncated at 300 characters, if necessary...\n   *************   3401 Schedule:Day:Interval,\n   ************* indicated Name=Sp-Corner_Class_1_Pod_1_ZN_1_FLR_1 Sys-3 Flr-2 Sch-D HPlcmt-south ZN NECB System 3 PSZ Occ Sch Tuesday\n   ************* Only last 1 lines before error line shown.....\n   *************   3402   Sp-Corner_Class_1_Pod_1_ZN_1_FLR_1 Sys-3 Flr-2 Sch-D HPlcmt-south ZN NECB System 3 PSZ Occ Sch Tuesday, !- Name\n   ** Warning ** IP: IDF line~3402 Alpha Argument length exceeds maximum, will be truncated=  Sp-Corner_Class_1_Pod_1_ZN_1_FLR_1 Sys-3 Flr-2 Sch-D HPlcmt-south ZN NECB System 3 PSZ Occ Sch Tuesda\n   **   ~~~   ** Will be processed as Alpha=SP-CORNER_CLASS_1_POD_1_ZN_1_FLR_1 SYS-3 FLR-2 SCH-D HPLCMT-SOUTH ZN NECB SYSTEM 3 PSZ OCC SCH TUESDAY\n   ************* IDF Context for following error/warning message:\n   ************* Note -- lines truncated at 300 characters, if necessary...\n   *************   3416 Schedule:Day:Interval,\n   ************* indicated Name=Sp-Corner_Class_1_Pod_1_ZN_1_FLR_1 Sys-3 Flr-2 Sch-D HPlcmt-south ZN NECB System 3 PSZ Occ Sch Wednesday\n   ************* Only last 1 lines before error line shown.....\n   *************   3417   Sp-Corner_Class_1_Pod_1_ZN_1_FLR_1 Sys-3 Flr-2 Sch-D HPlcmt-south ZN NECB System 3 PSZ Occ Sch Wednesday, !- Name\n   ** Warning ** IP: IDF line~3417 Alpha Argument length exceeds maximum, will be truncated=  Sp-Corner_Class_1_Pod_1_ZN_1_FLR_1 Sys-3 Flr-2 Sch-D HPlcmt-south ZN NECB System 3 PSZ Occ Sch Wednesda\n   **   ~~~   ** Will be processed as Alpha=SP-CORNER_CLASS_1_POD_1_ZN_1_FLR_1 SYS-3 FLR-2 SCH-D HPLCMT-SOUTH ZN NECB SYSTEM 3 PSZ OCC SCH WEDNESDAY\n   ************* IDF Context for following error/warning message:\n   ************* Note -- lines truncated at 300 characters, if necessary...\n   *************   3431 Schedule:Day:Interval,\n   ************* indicated Name=Sp-Corner_Class_1_Pod_1_ZN_1_FLR_1 Sys-3 Flr-2 Sch-D HPlcmt-south ZN NECB System 3 PSZ Occ Sch Thursday\n   ************* Only last 1 lines before error line shown.....\n   *************   3432   Sp-Corner_Class_1_Pod_1_ZN_1_FLR_1 Sys-3 Flr-2 Sch-D HPlcmt-south ZN NECB System 3 PSZ Occ Sch Thursday, !- Name\n   ** Warning ** IP: IDF line~3432 Alpha Argument length exceeds maximum, will be truncated=  Sp-Corner_Class_1_Pod_1_ZN_1_FLR_1 Sys-3 Flr-2 Sch-D HPlcmt-south ZN NECB System 3 PSZ Occ Sch Thursda\n   **   ~~~   ** Will be processed as Alpha=SP-CORNER_CLASS_1_POD_1_ZN_1_FLR_1 SYS-3 FLR-2 SCH-D HPLCMT-SOUTH ZN NECB SYSTEM 3 PSZ OCC SCH THURSDAY\n   ************* IDF Context for following error/warning message:\n   ************* Note -- lines truncated at 300 characters, if necessary...\n   *************   3446 Schedule:Day:Interval,\n   ************* indicated Name=Sp-Corner_Class_1_Pod_1_ZN_1_FLR_1 Sys-3 Flr-2 Sch-D HPlcmt-south ZN NECB System 3 PSZ Occ Sch Friday\n   ************* Only last 1 lines before error line shown.....\n   *************   3447   Sp-Corner_Class_1_Pod_1_ZN_1_FLR_1 Sys-3 Flr-2 Sch-D HPlcmt-south ZN NECB System 3 PSZ Occ Sch Friday, !- Name\n   ** Warning ** IP: IDF line~3447 Alpha Argument length exceeds maximum, will be truncated=  Sp-Corner_Class_1_Pod_1_ZN_1_FLR_1 Sys-3 Flr-2 Sch-D HPlcmt-south ZN NECB System 3 PSZ Occ Sch Frida\n   **   ~~~   ** Will be processed as Alpha=SP-CORNER_CLASS_1_POD_1_ZN_1_FLR_1 SYS-3 FLR-2 SCH-D HPLCMT-SOUTH ZN NECB SYSTEM 3 PSZ OCC SCH FRIDAY\n   ************* IDF Context for following error/warning message:\n   ************* Note -- lines truncated at 300 characters, if necessary...\n   *************   3461 Schedule:Day:Interval,\n   ************* indicated Name=Sp-Corner_Class_1_Pod_1_ZN_1_FLR_1 Sys-3 Flr-2 Sch-D HPlcmt-south ZN NECB System 3 PSZ Occ Sch Saturday\n   ************* Only last 1 lines before error line shown.....\n   *************   3462   Sp-Corner_Class_1_Pod_1_ZN_1_FLR_1 Sys-3 Flr-2 Sch-D HPlcmt-south ZN NECB System 3 PSZ Occ Sch Saturday, !- Name\n   ** Warning ** IP: IDF line~3462 Alpha Argument length exceeds maximum, will be truncated=  Sp-Corner_Class_1_Pod_1_ZN_1_FLR_1 Sys-3 Flr-2 Sch-D HPlcmt-south ZN NECB System 3 PSZ Occ Sch Saturda\n   **   ~~~   ** Will be processed as Alpha=SP-CORNER_CLASS_1_POD_1_ZN_1_FLR_1 SYS-3 FLR-2 SCH-D HPLCMT-SOUTH ZN NECB SYSTEM 3 PSZ OCC SCH SATURDAY\n   ************* IDF Context for following error/warning message:\n   ************* Note -- lines truncated at 300 characters, if necessary...\n   *************   3468 Schedule:Week:Daily,\n   ************* indicated Name=Schedule:Week:Daily {ebdfaa91-c5b5-4fb5-a197-10f708af9159}\n   ************* Only last 2 lines before error line shown.....\n   *************   3469   Schedule:Week:Daily {ebdfaa91-c5b5-4fb5-a197-10f708af9159}, !- Name\n   *************   3470   Sp-Corner_Class_1_Pod_1_ZN_1_FLR_1 Sys-3 Flr-2 Sch-D HPlcmt-south ZN NECB System 3 PSZ Occ Sch Sunday, !- Sunday Schedule:Day Name\n   ** Warning ** IP: IDF line~3470 Alpha Argument length exceeds maximum, will be truncated=  Sp-Corner_Class_1_Pod_1_ZN_1_FLR_1 Sys-3 Flr-2 Sch-D HPlcmt-south ZN NECB System 3 PSZ Occ Sch Sunda\n   **   ~~~   ** Will be processed as Alpha=SP-CORNER_CLASS_1_POD_1_ZN_1_FLR_1 SYS-3 FLR-2 SCH-D HPLCMT-SOUTH ZN NECB SYSTEM 3 PSZ OCC SCH SUNDAY\n   ************* IDF Context for following error/warning message:\n   ************* Note -- lines truncated at 300 characters, if necessary...\n   *************   3468 Schedule:Week:Daily,\n   ************* indicated Name=Schedule:Week:Daily {ebdfaa91-c5b5-4fb5-a197-10f708af9159}\n   ************* Only last 3 lines before error line shown.....\n   *************   3469   Schedule:Week:Daily {ebdfaa91-c5b5-4fb5-a197-10f708af9159}, !- Name\n   *************   3470   Sp-Corner_Class_1_Pod_1_ZN_1_FLR_1 Sys-3 Flr-2 Sch-D HPlcmt-south ZN NECB System 3 PSZ Occ Sch Sunday, !- Sunday Schedule:Day Name\n   *************   3471   Sp-Corner_Class_1_Pod_1_ZN_1_FLR_1 Sys-3 Flr-2 Sch-D HPlcmt-south ZN NECB System 3 PSZ Occ Sch Monday, !- Monday Schedule:Day Name\n   ** Warning ** IP: IDF line~3471 Alpha Argument length exceeds maximum, will be truncated=  Sp-Corner_Class_1_Pod_1_ZN_1_FLR_1 Sys-3 Flr-2 Sch-D HPlcmt-south ZN NECB System 3 PSZ Occ Sch Monda\n   **   ~~~   ** Will be processed as Alpha=SP-CORNER_CLASS_1_POD_1_ZN_1_FLR_1 SYS-3 FLR-2 SCH-D HPLCMT-SOUTH ZN NECB SYSTEM 3 PSZ OCC SCH MONDAY\n   ************* IDF Context for following error/warning message:\n   ************* Note -- lines truncated at 300 characters, if necessary...\n   *************   3468 Schedule:Week:Daily,\n   ************* indicated Name=Schedule:Week:Daily {ebdfaa91-c5b5-4fb5-a197-10f708af9159}\n   ************* Only last 4 lines before error line shown.....\n   *************   3469   Schedule:Week:Daily {ebdfaa91-c5b5-4fb5-a197-10f708af9159}, !- Name\n   *************   3470   Sp-Corner_Class_1_Pod_1_ZN_1_FLR_1 Sys-3 Flr-2 Sch-D HPlcmt-south ZN NECB System 3 PSZ Occ Sch Sunday, !- Sunday Schedule:Day Name\n   *************   3471   Sp-Corner_Class_1_Pod_1_ZN_1_FLR_1 Sys-3 Flr-2 Sch-D HPlcmt-south ZN NECB System 3 PSZ Occ Sch Monday, !- Monday Schedule:Day Name\n   *************   3472   Sp-Corner_Class_1_Pod_1_ZN_1_FLR_1 Sys-3 Flr-2 Sch-D HPlcmt-south ZN NECB System 3 PSZ Occ Sch Tuesday, !- Tuesday Schedule:Day Name\n   ** Warning ** IP: IDF line~3472 Alpha Argument length exceeds maximum, will be truncated=  Sp-Corner_Class_1_Pod_1_ZN_1_FLR_1 Sys-3 Flr-2 Sch-D HPlcmt-south ZN NECB System 3 PSZ Occ Sch Tuesda\n   **   ~~~   ** Will be processed as Alpha=SP-CORNER_CLASS_1_POD_1_ZN_1_FLR_1 SYS-3 FLR-2 SCH-D HPLCMT-SOUTH ZN NECB SYSTEM 3 PSZ OCC SCH TUESDAY\n   ************* IDF Context for following error/warning message:\n   ************* Note -- lines truncated at 300 characters, if necessary...\n   *************   3468 Schedule:Week:Daily,\n   ************* indicated Name=Schedule:Week:Daily {ebdfaa91-c5b5-4fb5-a197-10f708af9159}\n   ************* Only last 5 lines before error line shown.....\n   *************   3469   Schedule:Week:Daily {ebdfaa91-c5b5-4fb5-a197-10f708af9159}, !- Name\n   *************   3470   Sp-Corner_Class_1_Pod_1_ZN_1_FLR_1 Sys-3 Flr-2 Sch-D HPlcmt-south ZN NECB System 3 PSZ Occ Sch Sunday, !- Sunday Schedule:Day Name\n   *************   3471   Sp-Corner_Class_1_Pod_1_ZN_1_FLR_1 Sys-3 Flr-2 Sch-D HPlcmt-south ZN NECB System 3 PSZ Occ Sch Monday, !- Monday Schedule:Day Name\n   *************   3472   Sp-Corner_Class_1_Pod_1_ZN_1_FLR_1 Sys-3 Flr-2 Sch-D HPlcmt-south ZN NECB System 3 PSZ Occ Sch Tuesday, !- Tuesday Schedule:Day Name\n   *************   3473   Sp-Corner_Class_1_Pod_1_ZN_1_FLR_1 Sys-3 Flr-2 Sch-D HPlcmt-south ZN NECB System 3 PSZ Occ Sch Wednesday, !- Wednesday Schedule:Day Name\n   ** Warning ** IP: IDF line~3473 Alpha Argument length exceeds maximum, will be truncated=  Sp-Corner_Class_1_Pod_1_ZN_1_FLR_1 Sys-3 Flr-2 Sch-D HPlcmt-south ZN NECB System 3 PSZ Occ Sch Wednesda\n   **   ~~~   ** Will be processed as Alpha=SP-CORNER_CLASS_1_POD_1_ZN_1_FLR_1 SYS-3 FLR-2 SCH-D HPLCMT-SOUTH ZN NECB SYSTEM 3 PSZ OCC SCH WEDNESDAY\n   ************* IDF Context for following error/warning message:\n   ************* Note -- lines truncated at 300 characters, if necessary...\n   *************   3468 Schedule:Week:Daily,\n   ************* indicated Name=Schedule:Week:Daily {ebdfaa91-c5b5-4fb5-a197-10f708af9159}\n   ************* Only last 6 lines before error line shown.....\n   *************   3469   Schedule:Week:Daily {ebdfaa91-c5b5-4fb5-a197-10f708af9159}, !- Name\n   *************   3470   Sp-Corner_Class_1_Pod_1_ZN_1_FLR_1 Sys-3 Flr-2 Sch-D HPlcmt-south ZN NECB System 3 PSZ Occ Sch Sunday, !- Sunday Schedule:Day Name\n   *************   3471   Sp-Corner_Class_1_Pod_1_ZN_1_FLR_1 Sys-3 Flr-2 Sch-D HPlcmt-south ZN NECB System 3 PSZ Occ Sch Monday, !- Monday Schedule:Day Name\n   *************   3472   Sp-Corner_Class_1_Pod_1_ZN_1_FLR_1 Sys-3 Flr-2 Sch-D HPlcmt-south ZN NECB System 3 PSZ Occ Sch Tuesday, !- Tuesday Schedule:Day Name\n   *************   3473   Sp-Corner_Class_1_Pod_1_ZN_1_FLR_1 Sys-3 Flr-2 Sch-D HPlcmt-south ZN NECB System 3 PSZ Occ Sch Wednesday, !- Wednesday Schedule:Day Name\n   *************   3474   Sp-Corner_Class_1_Pod_1_ZN_1_FLR_1 Sys-3 Flr-2 Sch-D HPlcmt-south ZN NECB System 3 PSZ Occ Sch Thursday, !- Thursday Schedule:Day Name\n   ** Warning ** IP: IDF line~3474 Alpha Argument length exceeds maximum, will be truncated=  Sp-Corner_Class_1_Pod_1_ZN_1_FLR_1 Sys-3 Flr-2 Sch-D HPlcmt-south ZN NECB System 3 PSZ Occ Sch Thursda\n   **   ~~~   ** Will be processed as Alpha=SP-CORNER_CLASS_1_POD_1_ZN_1_FLR_1 SYS-3 FLR-2 SCH-D HPLCMT-SOUTH ZN NECB SYSTEM 3 PSZ OCC SCH THURSDAY\n   ************* IDF Context for following error/warning message:\n   ************* Note -- lines truncated at 300 characters, if necessary...\n   *************   3468 Schedule:Week:Daily,\n   ************* indicated Name=Schedule:Week:Daily {ebdfaa91-c5b5-4fb5-a197-10f708af9159}\n   ************* Only last 7 lines before error line shown.....\n   *************   3469   Schedule:Week:Daily {ebdfaa91-c5b5-4fb5-a197-10f708af9159}, !- Name\n   *************   3470   Sp-Corner_Class_1_Pod_1_ZN_1_FLR_1 Sys-3 Flr-2 Sch-D HPlcmt-south ZN NECB System 3 PSZ Occ Sch Sunday, !- Sunday Schedule:Day Name\n   *************   3471   Sp-Corner_Class_1_Pod_1_ZN_1_FLR_1 Sys-3 Flr-2 Sch-D HPlcmt-south ZN NECB System 3 PSZ Occ Sch Monday, !- Monday Schedule:Day Name\n   *************   3472   Sp-Corner_Class_1_Pod_1_ZN_1_FLR_1 Sys-3 Flr-2 Sch-D HPlcmt-south ZN NECB System 3 PSZ Occ Sch Tuesday, !- Tuesday Schedule:Day Name\n   *************   3473   Sp-Corner_Class_1_Pod_1_ZN_1_FLR_1 Sys-3 Flr-2 Sch-D HPlcmt-south ZN NECB System 3 PSZ Occ Sch Wednesday, !- Wednesday Schedule:Day Name\n   *************   3474   Sp-Corner_Class_1_Pod_1_ZN_1_FLR_1 Sys-3 Flr-2 Sch-D HPlcmt-south ZN NECB System 3 PSZ Occ Sch Thursday, !- Thursday Schedule:Day Name\n   *************   3475   Sp-Corner_Class_1_Pod_1_ZN_1_FLR_1 Sys-3 Flr-2 Sch-D HPlcmt-south ZN NECB System 3 PSZ Occ Sch Friday, !- Friday Schedule:Day Name\n   ** Warning ** IP: IDF line~3475 Alpha Argument length exceeds maximum, will be truncated=  Sp-Corner_Class_1_Pod_1_ZN_1_FLR_1 Sys-3 Flr-2 Sch-D HPlcmt-south ZN NECB System 3 PSZ Occ Sch Frida\n   **   ~~~   ** Will be processed as Alpha=SP-CORNER_CLASS_1_POD_1_ZN_1_FLR_1 SYS-3 FLR-2 SCH-D HPLCMT-SOUTH ZN NECB SYSTEM 3 PSZ OCC SCH FRIDAY\n   ************* IDF Context for following error/warning message:\n   ************* Note -- lines truncated at 300 characters, if necessary...\n   *************   3468 Schedule:Week:Daily,\n   ************* indicated Name=Schedule:Week:Daily {ebdfaa91-c5b5-4fb5-a197-10f708af9159}\n   ************* Only last 8 lines before error line shown.....\n   *************   3469   Schedule:Week:Daily {ebdfaa91-c5b5-4fb5-a197-10f708af9159}, !- Name\n   *************   3470   Sp-Corner_Class_1_Pod_1_ZN_1_FLR_1 Sys-3 Flr-2 Sch-D HPlcmt-south ZN NECB System 3 PSZ Occ Sch Sunday, !- Sunday Schedule:Day Name\n   *************   3471   Sp-Corner_Class_1_Pod_1_ZN_1_FLR_1 Sys-3 Flr-2 Sch-D HPlcmt-south ZN NECB System 3 PSZ Occ Sch Monday, !- Monday Schedule:Day Name\n   *************   3472   Sp-Corner_Class_1_Pod_1_ZN_1_FLR_1 Sys-3 Flr-2 Sch-D HPlcmt-south ZN NECB System 3 PSZ Occ Sch Tuesday, !- Tuesday Schedule:Day Name\n   *************   3473   Sp-Corner_Class_1_Pod_1_ZN_1_FLR_1 Sys-3 Flr-2 Sch-D HPlcmt-south ZN NECB System 3 PSZ Occ Sch Wednesday, !- Wednesday Schedule:Day Name\n   *************   3474   Sp-Corner_Class_1_Pod_1_ZN_1_FLR_1 Sys-3 Flr-2 Sch-D HPlcmt-south ZN NECB System 3 PSZ Occ Sch Thursday, !- Thursday Schedule:Day Name\n   *************   3475   Sp-Corner_Class_1_Pod_1_ZN_1_FLR_1 Sys-3 Flr-2 Sch-D HPlcmt-south ZN NECB System 3 PSZ Occ Sch Friday, !- Friday Schedule:Day Name\n   *************   3476   Sp-Corner_Class_1_Pod_1_ZN_1_FLR_1 Sys-3 Flr-2 Sch-D HPlcmt-south ZN NECB System 3 PSZ Occ Sch Saturday, !- Saturday Schedule:Day Name\n   ** Warning ** IP: IDF line~3476 Alpha Argument length exceeds maximum, will be truncated=  Sp-Corner_Class_1_Pod_1_ZN_1_FLR_1 Sys-3 Flr-2 Sch-D HPlcmt-south ZN NECB System 3 PSZ Occ Sch Saturda\n   **   ~~~   ** Will be processed as Alpha=SP-CORNER_CLASS_1_POD_1_ZN_1_FLR_1 SYS-3 FLR-2 SCH-D HPLCMT-SOUTH ZN NECB SYSTEM 3 PSZ OCC SCH SATURDAY\n   ************* IDF Context for following error/warning message:\n   ************* Note -- lines truncated at 300 characters, if necessary...\n   *************   3468 Schedule:Week:Daily,\n   ************* indicated Name=Schedule:Week:Daily {ebdfaa91-c5b5-4fb5-a197-10f708af9159}\n   ************* Only last 9 lines before error line shown.....\n   *************   3469   Schedule:Week:Daily {ebdfaa91-c5b5-4fb5-a197-10f708af9159}, !- Name\n   *************   3470   Sp-Corner_Class_1_Pod_1_ZN_1_FLR_1 Sys-3 Flr-2 Sch-D HPlcmt-south ZN NECB System 3 PSZ Occ Sch Sunday, !- Sunday Schedule:Day Name\n   *************   3471   Sp-Corner_Class_1_Pod_1_ZN_1_FLR_1 Sys-3 Flr-2 Sch-D HPlcmt-south ZN NECB System 3 PSZ Occ Sch Monday, !- Monday Schedule:Day Name\n   *************   3472   Sp-Corner_Class_1_Pod_1_ZN_1_FLR_1 Sys-3 Flr-2 Sch-D HPlcmt-south ZN NECB System 3 PSZ Occ Sch Tuesday, !- Tuesday Schedule:Day Name\n   *************   3473   Sp-Corner_Class_1_Pod_1_ZN_1_FLR_1 Sys-3 Flr-2 Sch-D HPlcmt-south ZN NECB System 3 PSZ Occ Sch Wednesday, !- Wednesday Schedule:Day Name\n   *************   3474   Sp-Corner_Class_1_Pod_1_ZN_1_FLR_1 Sys-3 Flr-2 Sch-D HPlcmt-south ZN NECB System 3 PSZ Occ Sch Thursday, !- Thursday Schedule:Day Name\n   *************   3475   Sp-Corner_Class_1_Pod_1_ZN_1_FLR_1 Sys-3 Flr-2 Sch-D HPlcmt-south ZN NECB System 3 PSZ Occ Sch Friday, !- Friday Schedule:Day Name\n   *************   3476   Sp-Corner_Class_1_Pod_1_ZN_1_FLR_1 Sys-3 Flr-2 Sch-D HPlcmt-south ZN NECB System 3 PSZ Occ Sch Saturday, !- Saturday Schedule:Day Name\n   *************   3477   Sp-Corner_Class_1_Pod_1_ZN_1_FLR_1 Sys-3 Flr-2 Sch-D HPlcmt-south ZN NECB System 3 PSZ Occ Sch Default, !- Holiday Schedule:Day Name\n   ** Warning ** IP: IDF line~3477 Alpha Argument length exceeds maximum, will be truncated=  Sp-Corner_Class_1_Pod_1_ZN_1_FLR_1 Sys-3 Flr-2 Sch-D HPlcmt-south ZN NECB System 3 PSZ Occ Sch Defaul\n   **   ~~~   ** Will be processed as Alpha=SP-CORNER_CLASS_1_POD_1_ZN_1_FLR_1 SYS-3 FLR-2 SCH-D HPLCMT-SOUTH ZN NECB SYSTEM 3 PSZ OCC SCH DEFAULT\n   ************* IDF Context for following error/warning message:\n   ************* Note -- lines truncated at 300 characters, if necessary...\n   *************   3468 Schedule:Week:Daily,\n   ************* indicated Name=Schedule:Week:Daily {ebdfaa91-c5b5-4fb5-a197-10f708af9159}\n   ************* Only last 10 lines before error line shown.....\n   *************   3469   Schedule:Week:Daily {ebdfaa91-c5b5-4fb5-a197-10f708af9159}, !- Name\n   *************   3470   Sp-Corner_Class_1_Pod_1_ZN_1_FLR_1 Sys-3 Flr-2 Sch-D HPlcmt-south ZN NECB System 3 PSZ Occ Sch Sunday, !- Sunday Schedule:Day Name\n   *************   3471   Sp-Corner_Class_1_Pod_1_ZN_1_FLR_1 Sys-3 Flr-2 Sch-D HPlcmt-south ZN NECB System 3 PSZ Occ Sch Monday, !- Monday Schedule:Day Name\n   *************   3472   Sp-Corner_Class_1_Pod_1_ZN_1_FLR_1 Sys-3 Flr-2 Sch-D HPlcmt-south ZN NECB System 3 PSZ Occ Sch Tuesday, !- Tuesday Schedule:Day Name\n   *************   3473   Sp-Corner_Class_1_Pod_1_ZN_1_FLR_1 Sys-3 Flr-2 Sch-D HPlcmt-south ZN NECB System 3 PSZ Occ Sch Wednesday, !- Wednesday Schedule:Day Name\n   *************   3474   Sp-Corner_Class_1_Pod_1_ZN_1_FLR_1 Sys-3 Flr-2 Sch-D HPlcmt-south ZN NECB System 3 PSZ Occ Sch Thursday, !- Thursday Schedule:Day Name\n   *************   3475   Sp-Corner_Class_1_Pod_1_ZN_1_FLR_1 Sys-3 Flr-2 Sch-D HPlcmt-south ZN NECB System 3 PSZ Occ Sch Friday, !- Friday Schedule:Day Name\n   *************   3476   Sp-Corner_Class_1_Pod_1_ZN_1_FLR_1 Sys-3 Flr-2 Sch-D HPlcmt-south ZN NECB System 3 PSZ Occ Sch Saturday, !- Saturday Schedule:Day Name\n   *************   3477   Sp-Corner_Class_1_Pod_1_ZN_1_FLR_1 Sys-3 Flr-2 Sch-D HPlcmt-south ZN NECB System 3 PSZ Occ Sch Default, !- Holiday Schedule:Day Name\n   *************   3478   Sp-Corner_Class_1_Pod_1_ZN_1_FLR_1 Sys-3 Flr-2 Sch-D HPlcmt-south ZN NECB System 3 PSZ Occ Sch Summer Design Day, !- SummerDesignDay Schedule:Day Name\n   ** Warning ** IP: IDF line~3478 Alpha Argument length exceeds maximum, will be truncated=  Sp-Corner_Class_1_Pod_1_ZN_1_FLR_1 Sys-3 Flr-2 Sch-D HPlcmt-south ZN NECB System 3 PSZ Occ Sch Summer Design Da\n   **   ~~~   ** Will be processed as Alpha=SP-CORNER_CLASS_1_POD_1_ZN_1_FLR_1 SYS-3 FLR-2 SCH-D HPLCMT-SOUTH ZN NECB SYSTEM 3 PSZ OCC SCH SUMMER DESIGN DAY\n   ************* IDF Context for following error/warning message:\n   ************* Note -- lines truncated at 300 characters, if necessary...\n   *************   3468 Schedule:Week:Daily,\n   ************* indicated Name=Schedule:Week:Daily {ebdfaa91-c5b5-4fb5-a197-10f708af9159}\n   ************* Only last 10 lines before error line shown.....\n   *************   3470   Sp-Corner_Class_1_Pod_1_ZN_1_FLR_1 Sys-3 Flr-2 Sch-D HPlcmt-south ZN NECB System 3 PSZ Occ Sch Sunday, !- Sunday Schedule:Day Name\n   *************   3471   Sp-Corner_Class_1_Pod_1_ZN_1_FLR_1 Sys-3 Flr-2 Sch-D HPlcmt-south ZN NECB System 3 PSZ Occ Sch Monday, !- Monday Schedule:Day Name\n   *************   3472   Sp-Corner_Class_1_Pod_1_ZN_1_FLR_1 Sys-3 Flr-2 Sch-D HPlcmt-south ZN NECB System 3 PSZ Occ Sch Tuesday, !- Tuesday Schedule:Day Name\n   *************   3473   Sp-Corner_Class_1_Pod_1_ZN_1_FLR_1 Sys-3 Flr-2 Sch-D HPlcmt-south ZN NECB System 3 PSZ Occ Sch Wednesday, !- Wednesday Schedule:Day Name\n   *************   3474   Sp-Corner_Class_1_Pod_1_ZN_1_FLR_1 Sys-3 Flr-2 Sch-D HPlcmt-south ZN NECB System 3 PSZ Occ Sch Thursday, !- Thursday Schedule:Day Name\n   *************   3475   Sp-Corner_Class_1_Pod_1_ZN_1_FLR_1 Sys-3 Flr-2 Sch-D HPlcmt-south ZN NECB System 3 PSZ Occ Sch Friday, !- Friday Schedule:Day Name\n   *************   3476   Sp-Corner_Class_1_Pod_1_ZN_1_FLR_1 Sys-3 Flr-2 Sch-D HPlcmt-south ZN NECB System 3 PSZ Occ Sch Saturday, !- Saturday Schedule:Day Name\n   *************   3477   Sp-Corner_Class_1_Pod_1_ZN_1_FLR_1 Sys-3 Flr-2 Sch-D HPlcmt-south ZN NECB System 3 PSZ Occ Sch Default, !- Holiday Schedule:Day Name\n   *************   3478   Sp-Corner_Class_1_Pod_1_ZN_1_FLR_1 Sys-3 Flr-2 Sch-D HPlcmt-south ZN NECB System 3 PSZ Occ Sch Summer Design Day, !- SummerDesignDay Schedule:Day Name\n   *************   3479   Sp-Corner_Class_1_Pod_1_ZN_1_FLR_1 Sys-3 Flr-2 Sch-D HPlcmt-south ZN NECB System 3 PSZ Occ Sch Winter Design Day, !- WinterDesignDay Schedule:Day Name\n   ** Warning ** IP: IDF line~3479 Alpha Argument length exceeds maximum, will be truncated=  Sp-Corner_Class_1_Pod_1_ZN_1_FLR_1 Sys-3 Flr-2 Sch-D HPlcmt-south ZN NECB System 3 PSZ Occ Sch Winter Design Da\n   **   ~~~   ** Will be processed as Alpha=SP-CORNER_CLASS_1_POD_1_ZN_1_FLR_1 SYS-3 FLR-2 SCH-D HPLCMT-SOUTH ZN NECB SYSTEM 3 PSZ OCC SCH WINTER DESIGN DAY\n   ************* IDF Context for following error/warning message:\n   ************* Note -- lines truncated at 300 characters, if necessary...\n   *************   3468 Schedule:Week:Daily,\n   ************* indicated Name=Schedule:Week:Daily {ebdfaa91-c5b5-4fb5-a197-10f708af9159}\n   ************* Only last 10 lines before error line shown.....\n   *************   3471   Sp-Corner_Class_1_Pod_1_ZN_1_FLR_1 Sys-3 Flr-2 Sch-D HPlcmt-south ZN NECB System 3 PSZ Occ Sch Monday, !- Monday Schedule:Day Name\n   *************   3472   Sp-Corner_Class_1_Pod_1_ZN_1_FLR_1 Sys-3 Flr-2 Sch-D HPlcmt-south ZN NECB System 3 PSZ Occ Sch Tuesday, !- Tuesday Schedule:Day Name\n   *************   3473   Sp-Corner_Class_1_Pod_1_ZN_1_FLR_1 Sys-3 Flr-2 Sch-D HPlcmt-south ZN NECB System 3 PSZ Occ Sch Wednesday, !- Wednesday Schedule:Day Name\n   *************   3474   Sp-Corner_Class_1_Pod_1_ZN_1_FLR_1 Sys-3 Flr-2 Sch-D HPlcmt-south ZN NECB System 3 PSZ Occ Sch Thursday, !- Thursday Schedule:Day Name\n   *************   3475   Sp-Corner_Class_1_Pod_1_ZN_1_FLR_1 Sys-3 Flr-2 Sch-D HPlcmt-south ZN NECB System 3 PSZ Occ Sch Friday, !- Friday Schedule:Day Name\n   *************   3476   Sp-Corner_Class_1_Pod_1_ZN_1_FLR_1 Sys-3 Flr-2 Sch-D HPlcmt-south ZN NECB System 3 PSZ Occ Sch Saturday, !- Saturday Schedule:Day Name\n   *************   3477   Sp-Corner_Class_1_Pod_1_ZN_1_FLR_1 Sys-3 Flr-2 Sch-D HPlcmt-south ZN NECB System 3 PSZ Occ Sch Default, !- Holiday Schedule:Day Name\n   *************   3478   Sp-Corner_Class_1_Pod_1_ZN_1_FLR_1 Sys-3 Flr-2 Sch-D HPlcmt-south ZN NECB System 3 PSZ Occ Sch Summer Design Day, !- SummerDesignDay Schedule:Day Name\n   *************   3479   Sp-Corner_Class_1_Pod_1_ZN_1_FLR_1 Sys-3 Flr-2 Sch-D HPlcmt-south ZN NECB System 3 PSZ Occ Sch Winter Design Day, !- WinterDesignDay Schedule:Day Name\n   *************   3480   Sp-Corner_Class_1_Pod_1_ZN_1_FLR_1 Sys-3 Flr-2 Sch-D HPlcmt-south ZN NECB System 3 PSZ Occ Sch Default, !- CustomDay1 Schedule:Day Name\n   ** Warning ** IP: IDF line~3480 Alpha Argument length exceeds maximum, will be truncated=  Sp-Corner_Class_1_Pod_1_ZN_1_FLR_1 Sys-3 Flr-2 Sch-D HPlcmt-south ZN NECB System 3 PSZ Occ Sch Defaul\n   **   ~~~   ** Will be processed as Alpha=SP-CORNER_CLASS_1_POD_1_ZN_1_FLR_1 SYS-3 FLR-2 SCH-D HPLCMT-SOUTH ZN NECB SYSTEM 3 PSZ OCC SCH DEFAULT\n   ************* IDF Context for following error/warning message:\n   ************* Note -- lines truncated at 300 characters, if necessary...\n   *************   3468 Schedule:Week:Daily,\n   ************* indicated Name=Schedule:Week:Daily {ebdfaa91-c5b5-4fb5-a197-10f708af9159}\n   ************* Only last 10 lines before error line shown.....\n   *************   3472   Sp-Corner_Class_1_Pod_1_ZN_1_FLR_1 Sys-3 Flr-2 Sch-D HPlcmt-south ZN NECB System 3 PSZ Occ Sch Tuesday, !- Tuesday Schedule:Day Name\n   *************   3473   Sp-Corner_Class_1_Pod_1_ZN_1_FLR_1 Sys-3 Flr-2 Sch-D HPlcmt-south ZN NECB System 3 PSZ Occ Sch Wednesday, !- Wednesday Schedule:Day Name\n   *************   3474   Sp-Corner_Class_1_Pod_1_ZN_1_FLR_1 Sys-3 Flr-2 Sch-D HPlcmt-south ZN NECB System 3 PSZ Occ Sch Thursday, !- Thursday Schedule:Day Name\n   *************   3475   Sp-Corner_Class_1_Pod_1_ZN_1_FLR_1 Sys-3 Flr-2 Sch-D HPlcmt-south ZN NECB System 3 PSZ Occ Sch Friday, !- Friday Schedule:Day Name\n   *************   3476   Sp-Corner_Class_1_Pod_1_ZN_1_FLR_1 Sys-3 Flr-2 Sch-D HPlcmt-south ZN NECB System 3 PSZ Occ Sch Saturday, !- Saturday Schedule:Day Name\n   *************   3477   Sp-Corner_Class_1_Pod_1_ZN_1_FLR_1 Sys-3 Flr-2 Sch-D HPlcmt-south ZN NECB System 3 PSZ Occ Sch Default, !- Holiday Schedule:Day Name\n   *************   3478   Sp-Corner_Class_1_Pod_1_ZN_1_FLR_1 Sys-3 Flr-2 Sch-D HPlcmt-south ZN NECB System 3 PSZ Occ Sch Summer Design Day, !- SummerDesignDay Schedule:Day Name\n   *************   3479   Sp-Corner_Class_1_Pod_1_ZN_1_FLR_1 Sys-3 Flr-2 Sch-D HPlcmt-south ZN NECB System 3 PSZ Occ Sch Winter Design Day, !- WinterDesignDay Schedule:Day Name\n   *************   3480   Sp-Corner_Class_1_Pod_1_ZN_1_FLR_1 Sys-3 Flr-2 Sch-D HPlcmt-south ZN NECB System 3 PSZ Occ Sch Default, !- CustomDay1 Schedule:Day Name\n   *************   3481   Sp-Corner_Class_1_Pod_1_ZN_1_FLR_1 Sys-3 Flr-2 Sch-D HPlcmt-south ZN NECB System 3 PSZ Occ Sch Default; !- CustomDay2 Schedule:Day Name\n   ** Warning ** IP: IDF line~3481 Alpha Argument length exceeds maximum, will be truncated=  Sp-Corner_Class_1_Pod_1_ZN_1_FLR_1 Sys-3 Flr-2 Sch-D HPlcmt-south ZN NECB System 3 PSZ Occ Sch Defaul\n   **   ~~~   ** Will be processed as Alpha=SP-CORNER_CLASS_1_POD_1_ZN_1_FLR_1 SYS-3 FLR-2 SCH-D HPLCMT-SOUTH ZN NECB SYSTEM 3 PSZ OCC SCH DEFAULT\n   ************* IDF Context for following error/warning message:\n   ************* Note -- lines truncated at 300 characters, if necessary...\n   *************   3492 Schedule:Day:Interval,\n   ************* indicated Name=Sp-Corner_Class_1_Pod_1_ZN_1_FLR_1 Sys-3 Flr-2 Sch-D HPlcmt-south ZN NECB System 3 PSZ Occ Sch Default\n   ************* Only last 1 lines before error line shown.....\n   *************   3493   Sp-Corner_Class_1_Pod_1_ZN_1_FLR_1 Sys-3 Flr-2 Sch-D HPlcmt-south ZN NECB System 3 PSZ Occ Sch Default, !- Name\n   ** Warning ** IP: IDF line~3493 Alpha Argument length exceeds maximum, will be truncated=  Sp-Corner_Class_1_Pod_1_ZN_1_FLR_1 Sys-3 Flr-2 Sch-D HPlcmt-south ZN NECB System 3 PSZ Occ Sch Defaul\n   **   ~~~   ** Will be processed as Alpha=SP-CORNER_CLASS_1_POD_1_ZN_1_FLR_1 SYS-3 FLR-2 SCH-D HPLCMT-SOUTH ZN NECB SYSTEM 3 PSZ OCC SCH DEFAULT\n   ************* IDF Context for following error/warning message:\n   ************* Note -- lines truncated at 300 characters, if necessary...\n   *************   3499 Schedule:Day:Interval,\n   ************* indicated Name=Sp-Corner_Class_1_Pod_1_ZN_1_FLR_1 Sys-3 Flr-2 Sch-D HPlcmt-south ZN NECB System 3 PSZ Occ Sch Summer Design Day\n   ************* Only last 1 lines before error line shown.....\n   *************   3500   Sp-Corner_Class_1_Pod_1_ZN_1_FLR_1 Sys-3 Flr-2 Sch-D HPlcmt-south ZN NECB System 3 PSZ Occ Sch Summer Design Day, !- Name\n   ** Warning ** IP: IDF line~3500 Alpha Argument length exceeds maximum, will be truncated=  Sp-Corner_Class_1_Pod_1_ZN_1_FLR_1 Sys-3 Flr-2 Sch-D HPlcmt-south ZN NECB System 3 PSZ Occ Sch Summer Design Da\n   **   ~~~   ** Will be processed as Alpha=SP-CORNER_CLASS_1_POD_1_ZN_1_FLR_1 SYS-3 FLR-2 SCH-D HPLCMT-SOUTH ZN NECB SYSTEM 3 PSZ OCC SCH SUMMER DESIGN DAY\n   ************* IDF Context for following error/warning message:\n   ************* Note -- lines truncated at 300 characters, if necessary...\n   *************   3506 Schedule:Day:Interval,\n   ************* indicated Name=Sp-Corner_Class_1_Pod_1_ZN_1_FLR_1 Sys-3 Flr-2 Sch-D HPlcmt-south ZN NECB System 3 PSZ Occ Sch Winter Design Day\n   ************* Only last 1 lines before error line shown.....\n   *************   3507   Sp-Corner_Class_1_Pod_1_ZN_1_FLR_1 Sys-3 Flr-2 Sch-D HPlcmt-south ZN NECB System 3 PSZ Occ Sch Winter Design Day, !- Name\n   ** Warning ** IP: IDF line~3507 Alpha Argument length exceeds maximum, will be truncated=  Sp-Corner_Class_1_Pod_1_ZN_1_FLR_1 Sys-3 Flr-2 Sch-D HPlcmt-south ZN NECB System 3 PSZ Occ Sch Winter Design Da\n   **   ~~~   ** Will be processed as Alpha=SP-CORNER_CLASS_1_POD_1_ZN_1_FLR_1 SYS-3 FLR-2 SCH-D HPLCMT-SOUTH ZN NECB SYSTEM 3 PSZ OCC SCH WINTER DESIGN DAY\n   ************* IDF Context for following error/warning message:\n   ************* Note -- lines truncated at 300 characters, if necessary...\n   *************   3783 Schedule:Day:Interval,\n   ************* indicated Name=Sp-Corner_Class_1_Pod_1_ZN_1_FLR_2 Sys-3 Flr-1 Sch-D HPlcmt-south ZN NECB System 3 PSZ Occ Sch Sunday\n   ************* Only last 1 lines before error line shown.....\n   *************   3784   Sp-Corner_Class_1_Pod_1_ZN_1_FLR_2 Sys-3 Flr-1 Sch-D HPlcmt-south ZN NECB System 3 PSZ Occ Sch Sunday, !- Name\n   ** Warning ** IP: IDF line~3784 Alpha Argument length exceeds maximum, will be truncated=  Sp-Corner_Class_1_Pod_1_ZN_1_FLR_2 Sys-3 Flr-1 Sch-D HPlcmt-south ZN NECB System 3 PSZ Occ Sch Sunda\n   **   ~~~   ** Will be processed as Alpha=SP-CORNER_CLASS_1_POD_1_ZN_1_FLR_2 SYS-3 FLR-1 SCH-D HPLCMT-SOUTH ZN NECB SYSTEM 3 PSZ OCC SCH SUNDAY\n   ************* IDF Context for following error/warning message:\n   ************* Note -- lines truncated at 300 characters, if necessary...\n   *************   3790 Schedule:Day:Interval,\n   ************* indicated Name=Sp-Corner_Class_1_Pod_1_ZN_1_FLR_2 Sys-3 Flr-1 Sch-D HPlcmt-south ZN NECB System 3 PSZ Occ Sch Monday\n   ************* Only last 1 lines before error line shown.....\n   *************   3791   Sp-Corner_Class_1_Pod_1_ZN_1_FLR_2 Sys-3 Flr-1 Sch-D HPlcmt-south ZN NECB System 3 PSZ Occ Sch Monday, !- Name\n   ** Warning ** IP: IDF line~3791 Alpha Argument length exceeds maximum, will be truncated=  Sp-Corner_Class_1_Pod_1_ZN_1_FLR_2 Sys-3 Flr-1 Sch-D HPlcmt-south ZN NECB System 3 PSZ Occ Sch Monda\n   **   ~~~   ** Will be processed as Alpha=SP-CORNER_CLASS_1_POD_1_ZN_1_FLR_2 SYS-3 FLR-1 SCH-D HPLCMT-SOUTH ZN NECB SYSTEM 3 PSZ OCC SCH MONDAY\n   ************* IDF Context for following error/warning message:\n   ************* Note -- lines truncated at 300 characters, if necessary...\n   *************   3805 Schedule:Day:Interval,\n   ************* indicated Name=Sp-Corner_Class_1_Pod_1_ZN_1_FLR_2 Sys-3 Flr-1 Sch-D HPlcmt-south ZN NECB System 3 PSZ Occ Sch Tuesday\n   ************* Only last 1 lines before error line shown.....\n   *************   3806   Sp-Corner_Class_1_Pod_1_ZN_1_FLR_2 Sys-3 Flr-1 Sch-D HPlcmt-south ZN NECB System 3 PSZ Occ Sch Tuesday, !- Name\n   ** Warning ** IP: IDF line~3806 Alpha Argument length exceeds maximum, will be truncated=  Sp-Corner_Class_1_Pod_1_ZN_1_FLR_2 Sys-3 Flr-1 Sch-D HPlcmt-south ZN NECB System 3 PSZ Occ Sch Tuesda\n   **   ~~~   ** Will be processed as Alpha=SP-CORNER_CLASS_1_POD_1_ZN_1_FLR_2 SYS-3 FLR-1 SCH-D HPLCMT-SOUTH ZN NECB SYSTEM 3 PSZ OCC SCH TUESDAY\n   ************* IDF Context for following error/warning message:\n   ************* Note -- lines truncated at 300 characters, if necessary...\n   *************   3820 Schedule:Day:Interval,\n   ************* indicated Name=Sp-Corner_Class_1_Pod_1_ZN_1_FLR_2 Sys-3 Flr-1 Sch-D HPlcmt-south ZN NECB System 3 PSZ Occ Sch Wednesday\n   ************* Only last 1 lines before error line shown.....\n   *************   3821   Sp-Corner_Class_1_Pod_1_ZN_1_FLR_2 Sys-3 Flr-1 Sch-D HPlcmt-south ZN NECB System 3 PSZ Occ Sch Wednesday, !- Name\n   ** Warning ** IP: IDF line~3821 Alpha Argument length exceeds maximum, will be truncated=  Sp-Corner_Class_1_Pod_1_ZN_1_FLR_2 Sys-3 Flr-1 Sch-D HPlcmt-south ZN NECB System 3 PSZ Occ Sch Wednesda\n   **   ~~~   ** Will be processed as Alpha=SP-CORNER_CLASS_1_POD_1_ZN_1_FLR_2 SYS-3 FLR-1 SCH-D HPLCMT-SOUTH ZN NECB SYSTEM 3 PSZ OCC SCH WEDNESDAY\n   ************* IDF Context for following error/warning message:\n   ************* Note -- lines truncated at 300 characters, if necessary...\n   *************   3835 Schedule:Day:Interval,\n   ************* indicated Name=Sp-Corner_Class_1_Pod_1_ZN_1_FLR_2 Sys-3 Flr-1 Sch-D HPlcmt-south ZN NECB System 3 PSZ Occ Sch Thursday\n   ************* Only last 1 lines before error line shown.....\n   *************   3836   Sp-Corner_Class_1_Pod_1_ZN_1_FLR_2 Sys-3 Flr-1 Sch-D HPlcmt-south ZN NECB System 3 PSZ Occ Sch Thursday, !- Name\n   ** Warning ** IP: IDF line~3836 Alpha Argument length exceeds maximum, will be truncated=  Sp-Corner_Class_1_Pod_1_ZN_1_FLR_2 Sys-3 Flr-1 Sch-D HPlcmt-south ZN NECB System 3 PSZ Occ Sch Thursda\n   **   ~~~   ** Will be processed as Alpha=SP-CORNER_CLASS_1_POD_1_ZN_1_FLR_2 SYS-3 FLR-1 SCH-D HPLCMT-SOUTH ZN NECB SYSTEM 3 PSZ OCC SCH THURSDAY\n   ************* IDF Context for following error/warning message:\n   ************* Note -- lines truncated at 300 characters, if necessary...\n   *************   3850 Schedule:Day:Interval,\n   ************* indicated Name=Sp-Corner_Class_1_Pod_1_ZN_1_FLR_2 Sys-3 Flr-1 Sch-D HPlcmt-south ZN NECB System 3 PSZ Occ Sch Friday\n   ************* Only last 1 lines before error line shown.....\n   *************   3851   Sp-Corner_Class_1_Pod_1_ZN_1_FLR_2 Sys-3 Flr-1 Sch-D HPlcmt-south ZN NECB System 3 PSZ Occ Sch Friday, !- Name\n   ** Warning ** IP: IDF line~3851 Alpha Argument length exceeds maximum, will be truncated=  Sp-Corner_Class_1_Pod_1_ZN_1_FLR_2 Sys-3 Flr-1 Sch-D HPlcmt-south ZN NECB System 3 PSZ Occ Sch Frida\n   **   ~~~   ** Will be processed as Alpha=SP-CORNER_CLASS_1_POD_1_ZN_1_FLR_2 SYS-3 FLR-1 SCH-D HPLCMT-SOUTH ZN NECB SYSTEM 3 PSZ OCC SCH FRIDAY\n   ************* IDF Context for following error/warning message:\n   ************* Note -- lines truncated at 300 characters, if necessary...\n   *************   3865 Schedule:Day:Interval,\n   ************* indicated Name=Sp-Corner_Class_1_Pod_1_ZN_1_FLR_2 Sys-3 Flr-1 Sch-D HPlcmt-south ZN NECB System 3 PSZ Occ Sch Saturday\n   ************* Only last 1 lines before error line shown.....\n   *************   3866   Sp-Corner_Class_1_Pod_1_ZN_1_FLR_2 Sys-3 Flr-1 Sch-D HPlcmt-south ZN NECB System 3 PSZ Occ Sch Saturday, !- Name\n   ** Warning ** IP: IDF line~3866 Alpha Argument length exceeds maximum, will be truncated=  Sp-Corner_Class_1_Pod_1_ZN_1_FLR_2 Sys-3 Flr-1 Sch-D HPlcmt-south ZN NECB System 3 PSZ Occ Sch Saturda\n   **   ~~~   ** Will be processed as Alpha=SP-CORNER_CLASS_1_POD_1_ZN_1_FLR_2 SYS-3 FLR-1 SCH-D HPLCMT-SOUTH ZN NECB SYSTEM 3 PSZ OCC SCH SATURDAY\n   ************* IDF Context for following error/warning message:\n   ************* Note -- lines truncated at 300 characters, if necessary...\n   *************   3872 Schedule:Week:Daily,\n   ************* indicated Name=Schedule:Week:Daily {6216538d-1a65-4572-aa06-2cada880d819}\n   ************* Only last 2 lines before error line shown.....\n   *************   3873   Schedule:Week:Daily {6216538d-1a65-4572-aa06-2cada880d819}, !- Name\n   *************   3874   Sp-Corner_Class_1_Pod_1_ZN_1_FLR_2 Sys-3 Flr-1 Sch-D HPlcmt-south ZN NECB System 3 PSZ Occ Sch Sunday, !- Sunday Schedule:Day Name\n   ** Warning ** IP: IDF line~3874 Alpha Argument length exceeds maximum, will be truncated=  Sp-Corner_Class_1_Pod_1_ZN_1_FLR_2 Sys-3 Flr-1 Sch-D HPlcmt-south ZN NECB System 3 PSZ Occ Sch Sunda\n   **   ~~~   ** Will be processed as Alpha=SP-CORNER_CLASS_1_POD_1_ZN_1_FLR_2 SYS-3 FLR-1 SCH-D HPLCMT-SOUTH ZN NECB SYSTEM 3 PSZ OCC SCH SUNDAY\n   ************* IDF Context for following error/warning message:\n   ************* Note -- lines truncated at 300 characters, if necessary...\n   *************   3872 Schedule:Week:Daily,\n   ************* indicated Name=Schedule:Week:Daily {6216538d-1a65-4572-aa06-2cada880d819}\n   ************* Only last 3 lines before error line shown.....\n   *************   3873   Schedule:Week:Daily {6216538d-1a65-4572-aa06-2cada880d819}, !- Name\n   *************   3874   Sp-Corner_Class_1_Pod_1_ZN_1_FLR_2 Sys-3 Flr-1 Sch-D HPlcmt-south ZN NECB System 3 PSZ Occ Sch Sunday, !- Sunday Schedule:Day Name\n   *************   3875   Sp-Corner_Class_1_Pod_1_ZN_1_FLR_2 Sys-3 Flr-1 Sch-D HPlcmt-south ZN NECB System 3 PSZ Occ Sch Monday, !- Monday Schedule:Day Name\n   ** Warning ** IP: IDF line~3875 Alpha Argument length exceeds maximum, will be truncated=  Sp-Corner_Class_1_Pod_1_ZN_1_FLR_2 Sys-3 Flr-1 Sch-D HPlcmt-south ZN NECB System 3 PSZ Occ Sch Monda\n   **   ~~~   ** Will be processed as Alpha=SP-CORNER_CLASS_1_POD_1_ZN_1_FLR_2 SYS-3 FLR-1 SCH-D HPLCMT-SOUTH ZN NECB SYSTEM 3 PSZ OCC SCH MONDAY\n   ************* IDF Context for following error/warning message:\n   ************* Note -- lines truncated at 300 characters, if necessary...\n   *************   3872 Schedule:Week:Daily,\n   ************* indicated Name=Schedule:Week:Daily {6216538d-1a65-4572-aa06-2cada880d819}\n   ************* Only last 4 lines before error line shown.....\n   *************   3873   Schedule:Week:Daily {6216538d-1a65-4572-aa06-2cada880d819}, !- Name\n   *************   3874   Sp-Corner_Class_1_Pod_1_ZN_1_FLR_2 Sys-3 Flr-1 Sch-D HPlcmt-south ZN NECB System 3 PSZ Occ Sch Sunday, !- Sunday Schedule:Day Name\n   *************   3875   Sp-Corner_Class_1_Pod_1_ZN_1_FLR_2 Sys-3 Flr-1 Sch-D HPlcmt-south ZN NECB System 3 PSZ Occ Sch Monday, !- Monday Schedule:Day Name\n   *************   3876   Sp-Corner_Class_1_Pod_1_ZN_1_FLR_2 Sys-3 Flr-1 Sch-D HPlcmt-south ZN NECB System 3 PSZ Occ Sch Tuesday, !- Tuesday Schedule:Day Name\n   ** Warning ** IP: IDF line~3876 Alpha Argument length exceeds maximum, will be truncated=  Sp-Corner_Class_1_Pod_1_ZN_1_FLR_2 Sys-3 Flr-1 Sch-D HPlcmt-south ZN NECB System 3 PSZ Occ Sch Tuesda\n   **   ~~~   ** Will be processed as Alpha=SP-CORNER_CLASS_1_POD_1_ZN_1_FLR_2 SYS-3 FLR-1 SCH-D HPLCMT-SOUTH ZN NECB SYSTEM 3 PSZ OCC SCH TUESDAY\n   ************* IDF Context for following error/warning message:\n   ************* Note -- lines truncated at 300 characters, if necessary...\n   *************   3872 Schedule:Week:Daily,\n   ************* indicated Name=Schedule:Week:Daily {6216538d-1a65-4572-aa06-2cada880d819}\n   ************* Only last 5 lines before error line shown.....\n   *************   3873   Schedule:Week:Daily {6216538d-1a65-4572-aa06-2cada880d819}, !- Name\n   *************   3874   Sp-Corner_Class_1_Pod_1_ZN_1_FLR_2 Sys-3 Flr-1 Sch-D HPlcmt-south ZN NECB System 3 PSZ Occ Sch Sunday, !- Sunday Schedule:Day Name\n   *************   3875   Sp-Corner_Class_1_Pod_1_ZN_1_FLR_2 Sys-3 Flr-1 Sch-D HPlcmt-south ZN NECB System 3 PSZ Occ Sch Monday, !- Monday Schedule:Day Name\n   *************   3876   Sp-Corner_Class_1_Pod_1_ZN_1_FLR_2 Sys-3 Flr-1 Sch-D HPlcmt-south ZN NECB System 3 PSZ Occ Sch Tuesday, !- Tuesday Schedule:Day Name\n   *************   3877   Sp-Corner_Class_1_Pod_1_ZN_1_FLR_2 Sys-3 Flr-1 Sch-D HPlcmt-south ZN NECB System 3 PSZ Occ Sch Wednesday, !- Wednesday Schedule:Day Name\n   ** Warning ** IP: IDF line~3877 Alpha Argument length exceeds maximum, will be truncated=  Sp-Corner_Class_1_Pod_1_ZN_1_FLR_2 Sys-3 Flr-1 Sch-D HPlcmt-south ZN NECB System 3 PSZ Occ Sch Wednesda\n   **   ~~~   ** Will be processed as Alpha=SP-CORNER_CLASS_1_POD_1_ZN_1_FLR_2 SYS-3 FLR-1 SCH-D HPLCMT-SOUTH ZN NECB SYSTEM 3 PSZ OCC SCH WEDNESDAY\n   ************* IDF Context for following error/warning message:\n   ************* Note -- lines truncated at 300 characters, if necessary...\n   *************   3872 Schedule:Week:Daily,\n   ************* indicated Name=Schedule:Week:Daily {6216538d-1a65-4572-aa06-2cada880d819}\n   ************* Only last 6 lines before error line shown.....\n   *************   3873   Schedule:Week:Daily {6216538d-1a65-4572-aa06-2cada880d819}, !- Name\n   *************   3874   Sp-Corner_Class_1_Pod_1_ZN_1_FLR_2 Sys-3 Flr-1 Sch-D HPlcmt-south ZN NECB System 3 PSZ Occ Sch Sunday, !- Sunday Schedule:Day Name\n   *************   3875   Sp-Corner_Class_1_Pod_1_ZN_1_FLR_2 Sys-3 Flr-1 Sch-D HPlcmt-south ZN NECB System 3 PSZ Occ Sch Monday, !- Monday Schedule:Day Name\n   *************   3876   Sp-Corner_Class_1_Pod_1_ZN_1_FLR_2 Sys-3 Flr-1 Sch-D HPlcmt-south ZN NECB System 3 PSZ Occ Sch Tuesday, !- Tuesday Schedule:Day Name\n   *************   3877   Sp-Corner_Class_1_Pod_1_ZN_1_FLR_2 Sys-3 Flr-1 Sch-D HPlcmt-south ZN NECB System 3 PSZ Occ Sch Wednesday, !- Wednesday Schedule:Day Name\n   *************   3878   Sp-Corner_Class_1_Pod_1_ZN_1_FLR_2 Sys-3 Flr-1 Sch-D HPlcmt-south ZN NECB System 3 PSZ Occ Sch Thursday, !- Thursday Schedule:Day Name\n   ** Warning ** IP: IDF line~3878 Alpha Argument length exceeds maximum, will be truncated=  Sp-Corner_Class_1_Pod_1_ZN_1_FLR_2 Sys-3 Flr-1 Sch-D HPlcmt-south ZN NECB System 3 PSZ Occ Sch Thursda\n   **   ~~~   ** Will be processed as Alpha=SP-CORNER_CLASS_1_POD_1_ZN_1_FLR_2 SYS-3 FLR-1 SCH-D HPLCMT-SOUTH ZN NECB SYSTEM 3 PSZ OCC SCH THURSDAY\n   ************* IDF Context for following error/warning message:\n   ************* Note -- lines truncated at 300 characters, if necessary...\n   *************   3872 Schedule:Week:Daily,\n   ************* indicated Name=Schedule:Week:Daily {6216538d-1a65-4572-aa06-2cada880d819}\n   ************* Only last 7 lines before error line shown.....\n   *************   3873   Schedule:Week:Daily {6216538d-1a65-4572-aa06-2cada880d819}, !- Name\n   *************   3874   Sp-Corner_Class_1_Pod_1_ZN_1_FLR_2 Sys-3 Flr-1 Sch-D HPlcmt-south ZN NECB System 3 PSZ Occ Sch Sunday, !- Sunday Schedule:Day Name\n   *************   3875   Sp-Corner_Class_1_Pod_1_ZN_1_FLR_2 Sys-3 Flr-1 Sch-D HPlcmt-south ZN NECB System 3 PSZ Occ Sch Monday, !- Monday Schedule:Day Name\n   *************   3876   Sp-Corner_Class_1_Pod_1_ZN_1_FLR_2 Sys-3 Flr-1 Sch-D HPlcmt-south ZN NECB System 3 PSZ Occ Sch Tuesday, !- Tuesday Schedule:Day Name\n   *************   3877   Sp-Corner_Class_1_Pod_1_ZN_1_FLR_2 Sys-3 Flr-1 Sch-D HPlcmt-south ZN NECB System 3 PSZ Occ Sch Wednesday, !- Wednesday Schedule:Day Name\n   *************   3878   Sp-Corner_Class_1_Pod_1_ZN_1_FLR_2 Sys-3 Flr-1 Sch-D HPlcmt-south ZN NECB System 3 PSZ Occ Sch Thursday, !- Thursday Schedule:Day Name\n   *************   3879   Sp-Corner_Class_1_Pod_1_ZN_1_FLR_2 Sys-3 Flr-1 Sch-D HPlcmt-south ZN NECB System 3 PSZ Occ Sch Friday, !- Friday Schedule:Day Name\n   ** Warning ** IP: IDF line~3879 Alpha Argument length exceeds maximum, will be truncated=  Sp-Corner_Class_1_Pod_1_ZN_1_FLR_2 Sys-3 Flr-1 Sch-D HPlcmt-south ZN NECB System 3 PSZ Occ Sch Frida\n   **   ~~~   ** Will be processed as Alpha=SP-CORNER_CLASS_1_POD_1_ZN_1_FLR_2 SYS-3 FLR-1 SCH-D HPLCMT-SOUTH ZN NECB SYSTEM 3 PSZ OCC SCH FRIDAY\n   ************* IDF Context for following error/warning message:\n   ************* Note -- lines truncated at 300 characters, if necessary...\n   *************   3872 Schedule:Week:Daily,\n   ************* indicated Name=Schedule:Week:Daily {6216538d-1a65-4572-aa06-2cada880d819}\n   ************* Only last 8 lines before error line shown.....\n   *************   3873   Schedule:Week:Daily {6216538d-1a65-4572-aa06-2cada880d819}, !- Name\n   *************   3874   Sp-Corner_Class_1_Pod_1_ZN_1_FLR_2 Sys-3 Flr-1 Sch-D HPlcmt-south ZN NECB System 3 PSZ Occ Sch Sunday, !- Sunday Schedule:Day Name\n   *************   3875   Sp-Corner_Class_1_Pod_1_ZN_1_FLR_2 Sys-3 Flr-1 Sch-D HPlcmt-south ZN NECB System 3 PSZ Occ Sch Monday, !- Monday Schedule:Day Name\n   *************   3876   Sp-Corner_Class_1_Pod_1_ZN_1_FLR_2 Sys-3 Flr-1 Sch-D HPlcmt-south ZN NECB System 3 PSZ Occ Sch Tuesday, !- Tuesday Schedule:Day Name\n   *************   3877   Sp-Corner_Class_1_Pod_1_ZN_1_FLR_2 Sys-3 Flr-1 Sch-D HPlcmt-south ZN NECB System 3 PSZ Occ Sch Wednesday, !- Wednesday Schedule:Day Name\n   *************   3878   Sp-Corner_Class_1_Pod_1_ZN_1_FLR_2 Sys-3 Flr-1 Sch-D HPlcmt-south ZN NECB System 3 PSZ Occ Sch Thursday, !- Thursday Schedule:Day Name\n   *************   3879   Sp-Corner_Class_1_Pod_1_ZN_1_FLR_2 Sys-3 Flr-1 Sch-D HPlcmt-south ZN NECB System 3 PSZ Occ Sch Friday, !- Friday Schedule:Day Name\n   *************   3880   Sp-Corner_Class_1_Pod_1_ZN_1_FLR_2 Sys-3 Flr-1 Sch-D HPlcmt-south ZN NECB System 3 PSZ Occ Sch Saturday, !- Saturday Schedule:Day Name\n   ** Warning ** IP: IDF line~3880 Alpha Argument length exceeds maximum, will be truncated=  Sp-Corner_Class_1_Pod_1_ZN_1_FLR_2 Sys-3 Flr-1 Sch-D HPlcmt-south ZN NECB System 3 PSZ Occ Sch Saturda\n   **   ~~~   ** Will be processed as Alpha=SP-CORNER_CLASS_1_POD_1_ZN_1_FLR_2 SYS-3 FLR-1 SCH-D HPLCMT-SOUTH ZN NECB SYSTEM 3 PSZ OCC SCH SATURDAY\n   ************* IDF Context for following error/warning message:\n   ************* Note -- lines truncated at 300 characters, if necessary...\n   *************   3872 Schedule:Week:Daily,\n   ************* indicated Name=Schedule:Week:Daily {6216538d-1a65-4572-aa06-2cada880d819}\n   ************* Only last 9 lines before error line shown.....\n   *************   3873   Schedule:Week:Daily {6216538d-1a65-4572-aa06-2cada880d819}, !- Name\n   *************   3874   Sp-Corner_Class_1_Pod_1_ZN_1_FLR_2 Sys-3 Flr-1 Sch-D HPlcmt-south ZN NECB System 3 PSZ Occ Sch Sunday, !- Sunday Schedule:Day Name\n   *************   3875   Sp-Corner_Class_1_Pod_1_ZN_1_FLR_2 Sys-3 Flr-1 Sch-D HPlcmt-south ZN NECB System 3 PSZ Occ Sch Monday, !- Monday Schedule:Day Name\n   *************   3876   Sp-Corner_Class_1_Pod_1_ZN_1_FLR_2 Sys-3 Flr-1 Sch-D HPlcmt-south ZN NECB System 3 PSZ Occ Sch Tuesday, !- Tuesday Schedule:Day Name\n   *************   3877   Sp-Corner_Class_1_Pod_1_ZN_1_FLR_2 Sys-3 Flr-1 Sch-D HPlcmt-south ZN NECB System 3 PSZ Occ Sch Wednesday, !- Wednesday Schedule:Day Name\n   *************   3878   Sp-Corner_Class_1_Pod_1_ZN_1_FLR_2 Sys-3 Flr-1 Sch-D HPlcmt-south ZN NECB System 3 PSZ Occ Sch Thursday, !- Thursday Schedule:Day Name\n   *************   3879   Sp-Corner_Class_1_Pod_1_ZN_1_FLR_2 Sys-3 Flr-1 Sch-D HPlcmt-south ZN NECB System 3 PSZ Occ Sch Friday, !- Friday Schedule:Day Name\n   *************   3880   Sp-Corner_Class_1_Pod_1_ZN_1_FLR_2 Sys-3 Flr-1 Sch-D HPlcmt-south ZN NECB System 3 PSZ Occ Sch Saturday, !- Saturday Schedule:Day Name\n   *************   3881   Sp-Corner_Class_1_Pod_1_ZN_1_FLR_2 Sys-3 Flr-1 Sch-D HPlcmt-south ZN NECB System 3 PSZ Occ Sch Default, !- Holiday Schedule:Day Name\n   ** Warning ** IP: IDF line~3881 Alpha Argument length exceeds maximum, will be truncated=  Sp-Corner_Class_1_Pod_1_ZN_1_FLR_2 Sys-3 Flr-1 Sch-D HPlcmt-south ZN NECB System 3 PSZ Occ Sch Defaul\n   **   ~~~   ** Will be processed as Alpha=SP-CORNER_CLASS_1_POD_1_ZN_1_FLR_2 SYS-3 FLR-1 SCH-D HPLCMT-SOUTH ZN NECB SYSTEM 3 PSZ OCC SCH DEFAULT\n   ************* IDF Context for following error/warning message:\n   ************* Note -- lines truncated at 300 characters, if necessary...\n   *************   3872 Schedule:Week:Daily,\n   ************* indicated Name=Schedule:Week:Daily {6216538d-1a65-4572-aa06-2cada880d819}\n   ************* Only last 10 lines before error line shown.....\n   *************   3873   Schedule:Week:Daily {6216538d-1a65-4572-aa06-2cada880d819}, !- Name\n   *************   3874   Sp-Corner_Class_1_Pod_1_ZN_1_FLR_2 Sys-3 Flr-1 Sch-D HPlcmt-south ZN NECB System 3 PSZ Occ Sch Sunday, !- Sunday Schedule:Day Name\n   *************   3875   Sp-Corner_Class_1_Pod_1_ZN_1_FLR_2 Sys-3 Flr-1 Sch-D HPlcmt-south ZN NECB System 3 PSZ Occ Sch Monday, !- Monday Schedule:Day Name\n   *************   3876   Sp-Corner_Class_1_Pod_1_ZN_1_FLR_2 Sys-3 Flr-1 Sch-D HPlcmt-south ZN NECB System 3 PSZ Occ Sch Tuesday, !- Tuesday Schedule:Day Name\n   *************   3877   Sp-Corner_Class_1_Pod_1_ZN_1_FLR_2 Sys-3 Flr-1 Sch-D HPlcmt-south ZN NECB System 3 PSZ Occ Sch Wednesday, !- Wednesday Schedule:Day Name\n   *************   3878   Sp-Corner_Class_1_Pod_1_ZN_1_FLR_2 Sys-3 Flr-1 Sch-D HPlcmt-south ZN NECB System 3 PSZ Occ Sch Thursday, !- Thursday Schedule:Day Name\n   *************   3879   Sp-Corner_Class_1_Pod_1_ZN_1_FLR_2 Sys-3 Flr-1 Sch-D HPlcmt-south ZN NECB System 3 PSZ Occ Sch Friday, !- Friday Schedule:Day Name\n   *************   3880   Sp-Corner_Class_1_Pod_1_ZN_1_FLR_2 Sys-3 Flr-1 Sch-D HPlcmt-south ZN NECB System 3 PSZ Occ Sch Saturday, !- Saturday Schedule:Day Name\n   *************   3881   Sp-Corner_Class_1_Pod_1_ZN_1_FLR_2 Sys-3 Flr-1 Sch-D HPlcmt-south ZN NECB System 3 PSZ Occ Sch Default, !- Holiday Schedule:Day Name\n   *************   3882   Sp-Corner_Class_1_Pod_1_ZN_1_FLR_2 Sys-3 Flr-1 Sch-D HPlcmt-south ZN NECB System 3 PSZ Occ Sch Summer Design Day, !- SummerDesignDay Schedule:Day Name\n   ** Warning ** IP: IDF line~3882 Alpha Argument length exceeds maximum, will be truncated=  Sp-Corner_Class_1_Pod_1_ZN_1_FLR_2 Sys-3 Flr-1 Sch-D HPlcmt-south ZN NECB System 3 PSZ Occ Sch Summer Design Da\n   **   ~~~   ** Will be processed as Alpha=SP-CORNER_CLASS_1_POD_1_ZN_1_FLR_2 SYS-3 FLR-1 SCH-D HPLCMT-SOUTH ZN NECB SYSTEM 3 PSZ OCC SCH SUMMER DESIGN DAY\n   ************* IDF Context for following error/warning message:\n   ************* Note -- lines truncated at 300 characters, if necessary...\n   *************   3872 Schedule:Week:Daily,\n   ************* indicated Name=Schedule:Week:Daily {6216538d-1a65-4572-aa06-2cada880d819}\n   ************* Only last 10 lines before error line shown.....\n   *************   3874   Sp-Corner_Class_1_Pod_1_ZN_1_FLR_2 Sys-3 Flr-1 Sch-D HPlcmt-south ZN NECB System 3 PSZ Occ Sch Sunday, !- Sunday Schedule:Day Name\n   *************   3875   Sp-Corner_Class_1_Pod_1_ZN_1_FLR_2 Sys-3 Flr-1 Sch-D HPlcmt-south ZN NECB System 3 PSZ Occ Sch Monday, !- Monday Schedule:Day Name\n   *************   3876   Sp-Corner_Class_1_Pod_1_ZN_1_FLR_2 Sys-3 Flr-1 Sch-D HPlcmt-south ZN NECB System 3 PSZ Occ Sch Tuesday, !- Tuesday Schedule:Day Name\n   *************   3877   Sp-Corner_Class_1_Pod_1_ZN_1_FLR_2 Sys-3 Flr-1 Sch-D HPlcmt-south ZN NECB System 3 PSZ Occ Sch Wednesday, !- Wednesday Schedule:Day Name\n   *************   3878   Sp-Corner_Class_1_Pod_1_ZN_1_FLR_2 Sys-3 Flr-1 Sch-D HPlcmt-south ZN NECB System 3 PSZ Occ Sch Thursday, !- Thursday Schedule:Day Name\n   *************   3879   Sp-Corner_Class_1_Pod_1_ZN_1_FLR_2 Sys-3 Flr-1 Sch-D HPlcmt-south ZN NECB System 3 PSZ Occ Sch Friday, !- Friday Schedule:Day Name\n   *************   3880   Sp-Corner_Class_1_Pod_1_ZN_1_FLR_2 Sys-3 Flr-1 Sch-D HPlcmt-south ZN NECB System 3 PSZ Occ Sch Saturday, !- Saturday Schedule:Day Name\n   *************   3881   Sp-Corner_Class_1_Pod_1_ZN_1_FLR_2 Sys-3 Flr-1 Sch-D HPlcmt-south ZN NECB System 3 PSZ Occ Sch Default, !- Holiday Schedule:Day Name\n   *************   3882   Sp-Corner_Class_1_Pod_1_ZN_1_FLR_2 Sys-3 Flr-1 Sch-D HPlcmt-south ZN NECB System 3 PSZ Occ Sch Summer Design Day, !- SummerDesignDay Schedule:Day Name\n   *************   3883   Sp-Corner_Class_1_Pod_1_ZN_1_FLR_2 Sys-3 Flr-1 Sch-D HPlcmt-south ZN NECB System 3 PSZ Occ Sch Winter Design Day, !- WinterDesignDay Schedule:Day Name\n   ** Warning ** IP: IDF line~3883 Alpha Argument length exceeds maximum, will be truncated=  Sp-Corner_Class_1_Pod_1_ZN_1_FLR_2 Sys-3 Flr-1 Sch-D HPlcmt-south ZN NECB System 3 PSZ Occ Sch Winter Design Da\n   **   ~~~   ** Will be processed as Alpha=SP-CORNER_CLASS_1_POD_1_ZN_1_FLR_2 SYS-3 FLR-1 SCH-D HPLCMT-SOUTH ZN NECB SYSTEM 3 PSZ OCC SCH WINTER DESIGN DAY\n   ************* IDF Context for following error/warning message:\n   ************* Note -- lines truncated at 300 characters, if necessary...\n   *************   3872 Schedule:Week:Daily,\n   ************* indicated Name=Schedule:Week:Daily {6216538d-1a65-4572-aa06-2cada880d819}\n   ************* Only last 10 lines before error line shown.....\n   *************   3875   Sp-Corner_Class_1_Pod_1_ZN_1_FLR_2 Sys-3 Flr-1 Sch-D HPlcmt-south ZN NECB System 3 PSZ Occ Sch Monday, !- Monday Schedule:Day Name\n   *************   3876   Sp-Corner_Class_1_Pod_1_ZN_1_FLR_2 Sys-3 Flr-1 Sch-D HPlcmt-south ZN NECB System 3 PSZ Occ Sch Tuesday, !- Tuesday Schedule:Day Name\n   *************   3877   Sp-Corner_Class_1_Pod_1_ZN_1_FLR_2 Sys-3 Flr-1 Sch-D HPlcmt-south ZN NECB System 3 PSZ Occ Sch Wednesday, !- Wednesday Schedule:Day Name\n   *************   3878   Sp-Corner_Class_1_Pod_1_ZN_1_FLR_2 Sys-3 Flr-1 Sch-D HPlcmt-south ZN NECB System 3 PSZ Occ Sch Thursday, !- Thursday Schedule:Day Name\n   *************   3879   Sp-Corner_Class_1_Pod_1_ZN_1_FLR_2 Sys-3 Flr-1 Sch-D HPlcmt-south ZN NECB System 3 PSZ Occ Sch Friday, !- Friday Schedule:Day Name\n   *************   3880   Sp-Corner_Class_1_Pod_1_ZN_1_FLR_2 Sys-3 Flr-1 Sch-D HPlcmt-south ZN NECB System 3 PSZ Occ Sch Saturday, !- Saturday Schedule:Day Name\n   *************   3881   Sp-Corner_Class_1_Pod_1_ZN_1_FLR_2 Sys-3 Flr-1 Sch-D HPlcmt-south ZN NECB System 3 PSZ Occ Sch Default, !- Holiday Schedule:Day Name\n   *************   3882   Sp-Corner_Class_1_Pod_1_ZN_1_FLR_2 Sys-3 Flr-1 Sch-D HPlcmt-south ZN NECB System 3 PSZ Occ Sch Summer Design Day, !- SummerDesignDay Schedule:Day Name\n   *************   3883   Sp-Corner_Class_1_Pod_1_ZN_1_FLR_2 Sys-3 Flr-1 Sch-D HPlcmt-south ZN NECB System 3 PSZ Occ Sch Winter Design Day, !- WinterDesignDay Schedule:Day Name\n   *************   3884   Sp-Corner_Class_1_Pod_1_ZN_1_FLR_2 Sys-3 Flr-1 Sch-D HPlcmt-south ZN NECB System 3 PSZ Occ Sch Default, !- CustomDay1 Schedule:Day Name\n   ** Warning ** IP: IDF line~3884 Alpha Argument length exceeds maximum, will be truncated=  Sp-Corner_Class_1_Pod_1_ZN_1_FLR_2 Sys-3 Flr-1 Sch-D HPlcmt-south ZN NECB System 3 PSZ Occ Sch Defaul\n   **   ~~~   ** Will be processed as Alpha=SP-CORNER_CLASS_1_POD_1_ZN_1_FLR_2 SYS-3 FLR-1 SCH-D HPLCMT-SOUTH ZN NECB SYSTEM 3 PSZ OCC SCH DEFAULT\n   ************* IDF Context for following error/warning message:\n   ************* Note -- lines truncated at 300 characters, if necessary...\n   *************   3872 Schedule:Week:Daily,\n   ************* indicated Name=Schedule:Week:Daily {6216538d-1a65-4572-aa06-2cada880d819}\n   ************* Only last 10 lines before error line shown.....\n   *************   3876   Sp-Corner_Class_1_Pod_1_ZN_1_FLR_2 Sys-3 Flr-1 Sch-D HPlcmt-south ZN NECB System 3 PSZ Occ Sch Tuesday, !- Tuesday Schedule:Day Name\n   *************   3877   Sp-Corner_Class_1_Pod_1_ZN_1_FLR_2 Sys-3 Flr-1 Sch-D HPlcmt-south ZN NECB System 3 PSZ Occ Sch Wednesday, !- Wednesday Schedule:Day Name\n   *************   3878   Sp-Corner_Class_1_Pod_1_ZN_1_FLR_2 Sys-3 Flr-1 Sch-D HPlcmt-south ZN NECB System 3 PSZ Occ Sch Thursday, !- Thursday Schedule:Day Name\n   *************   3879   Sp-Corner_Class_1_Pod_1_ZN_1_FLR_2 Sys-3 Flr-1 Sch-D HPlcmt-south ZN NECB System 3 PSZ Occ Sch Friday, !- Friday Schedule:Day Name\n   *************   3880   Sp-Corner_Class_1_Pod_1_ZN_1_FLR_2 Sys-3 Flr-1 Sch-D HPlcmt-south ZN NECB System 3 PSZ Occ Sch Saturday, !- Saturday Schedule:Day Name\n   *************   3881   Sp-Corner_Class_1_Pod_1_ZN_1_FLR_2 Sys-3 Flr-1 Sch-D HPlcmt-south ZN NECB System 3 PSZ Occ Sch Default, !- Holiday Schedule:Day Name\n   *************   3882   Sp-Corner_Class_1_Pod_1_ZN_1_FLR_2 Sys-3 Flr-1 Sch-D HPlcmt-south ZN NECB System 3 PSZ Occ Sch Summer Design Day, !- SummerDesignDay Schedule:Day Name\n   *************   3883   Sp-Corner_Class_1_Pod_1_ZN_1_FLR_2 Sys-3 Flr-1 Sch-D HPlcmt-south ZN NECB System 3 PSZ Occ Sch Winter Design Day, !- WinterDesignDay Schedule:Day Name\n   *************   3884   Sp-Corner_Class_1_Pod_1_ZN_1_FLR_2 Sys-3 Flr-1 Sch-D HPlcmt-south ZN NECB System 3 PSZ Occ Sch Default, !- CustomDay1 Schedule:Day Name\n   *************   3885   Sp-Corner_Class_1_Pod_1_ZN_1_FLR_2 Sys-3 Flr-1 Sch-D HPlcmt-south ZN NECB System 3 PSZ Occ Sch Default; !- CustomDay2 Schedule:Day Name\n   ** Warning ** IP: IDF line~3885 Alpha Argument length exceeds maximum, will be truncated=  Sp-Corner_Class_1_Pod_1_ZN_1_FLR_2 Sys-3 Flr-1 Sch-D HPlcmt-south ZN NECB System 3 PSZ Occ Sch Defaul\n   **   ~~~   ** Will be processed as Alpha=SP-CORNER_CLASS_1_POD_1_ZN_1_FLR_2 SYS-3 FLR-1 SCH-D HPLCMT-SOUTH ZN NECB SYSTEM 3 PSZ OCC SCH DEFAULT\n   ************* IDF Context for following error/warning message:\n   ************* Note -- lines truncated at 300 characters, if necessary...\n   *************   3896 Schedule:Day:Interval,\n   ************* indicated Name=Sp-Corner_Class_1_Pod_1_ZN_1_FLR_2 Sys-3 Flr-1 Sch-D HPlcmt-south ZN NECB System 3 PSZ Occ Sch Default\n   ************* Only last 1 lines before error line shown.....\n   *************   3897   Sp-Corner_Class_1_Pod_1_ZN_1_FLR_2 Sys-3 Flr-1 Sch-D HPlcmt-south ZN NECB System 3 PSZ Occ Sch Default, !- Name\n   ** Warning ** IP: IDF line~3897 Alpha Argument length exceeds maximum, will be truncated=  Sp-Corner_Class_1_Pod_1_ZN_1_FLR_2 Sys-3 Flr-1 Sch-D HPlcmt-south ZN NECB System 3 PSZ Occ Sch Defaul\n   **   ~~~   ** Will be processed as Alpha=SP-CORNER_CLASS_1_POD_1_ZN_1_FLR_2 SYS-3 FLR-1 SCH-D HPLCMT-SOUTH ZN NECB SYSTEM 3 PSZ OCC SCH DEFAULT\n   ************* IDF Context for following error/warning message:\n   ************* Note -- lines truncated at 300 characters, if necessary...\n   *************   3903 Schedule:Day:Interval,\n   ************* indicated Name=Sp-Corner_Class_1_Pod_1_ZN_1_FLR_2 Sys-3 Flr-1 Sch-D HPlcmt-south ZN NECB System 3 PSZ Occ Sch Summer Design Day\n   ************* Only last 1 lines before error line shown.....\n   *************   3904   Sp-Corner_Class_1_Pod_1_ZN_1_FLR_2 Sys-3 Flr-1 Sch-D HPlcmt-south ZN NECB System 3 PSZ Occ Sch Summer Design Day, !- Name\n   ** Warning ** IP: IDF line~3904 Alpha Argument length exceeds maximum, will be truncated=  Sp-Corner_Class_1_Pod_1_ZN_1_FLR_2 Sys-3 Flr-1 Sch-D HPlcmt-south ZN NECB System 3 PSZ Occ Sch Summer Design Da\n   **   ~~~   ** Will be processed as Alpha=SP-CORNER_CLASS_1_POD_1_ZN_1_FLR_2 SYS-3 FLR-1 SCH-D HPLCMT-SOUTH ZN NECB SYSTEM 3 PSZ OCC SCH SUMMER DESIGN DAY\n   ************* IDF Context for following error/warning message:\n   ************* Note -- lines truncated at 300 characters, if necessary...\n   *************   3910 Schedule:Day:Interval,\n   ************* indicated Name=Sp-Corner_Class_1_Pod_1_ZN_1_FLR_2 Sys-3 Flr-1 Sch-D HPlcmt-south ZN NECB System 3 PSZ Occ Sch Winter Design Day\n   ************* Only last 1 lines before error line shown.....\n   *************   3911   Sp-Corner_Class_1_Pod_1_ZN_1_FLR_2 Sys-3 Flr-1 Sch-D HPlcmt-south ZN NECB System 3 PSZ Occ Sch Winter Design Day, !- Name\n   ** Warning ** IP: IDF line~3911 Alpha Argument length exceeds maximum, will be truncated=  Sp-Corner_Class_1_Pod_1_ZN_1_FLR_2 Sys-3 Flr-1 Sch-D HPlcmt-south ZN NECB System 3 PSZ Occ Sch Winter Design Da\n   **   ~~~   ** Will be processed as Alpha=SP-CORNER_CLASS_1_POD_1_ZN_1_FLR_2 SYS-3 FLR-1 SCH-D HPLCMT-SOUTH ZN NECB SYSTEM 3 PSZ OCC SCH WINTER DESIGN DAY\n   ************* IDF Context for following error/warning message:\n   ************* Note -- lines truncated at 300 characters, if necessary...\n   *************   4179 Schedule:Day:Interval,\n   ************* indicated Name=Sp-Corner_Class_1_Pod_2_ZN_1_FLR_1 Sys-3 Flr-2 Sch-D HPlcmt-south ZN NECB System 3 PSZ Occ Sch Sunday\n   ************* Only last 1 lines before error line shown.....\n   *************   4180   Sp-Corner_Class_1_Pod_2_ZN_1_FLR_1 Sys-3 Flr-2 Sch-D HPlcmt-south ZN NECB System 3 PSZ Occ Sch Sunday, !- Name\n   ** Warning ** IP: IDF line~4180 Alpha Argument length exceeds maximum, will be truncated=  Sp-Corner_Class_1_Pod_2_ZN_1_FLR_1 Sys-3 Flr-2 Sch-D HPlcmt-south ZN NECB System 3 PSZ Occ Sch Sunda\n   **   ~~~   ** Will be processed as Alpha=SP-CORNER_CLASS_1_POD_2_ZN_1_FLR_1 SYS-3 FLR-2 SCH-D HPLCMT-SOUTH ZN NECB SYSTEM 3 PSZ OCC SCH SUNDAY\n   ************* IDF Context for following error/warning message:\n   ************* Note -- lines truncated at 300 characters, if necessary...\n   *************   4186 Schedule:Day:Interval,\n   ************* indicated Name=Sp-Corner_Class_1_Pod_2_ZN_1_FLR_1 Sys-3 Flr-2 Sch-D HPlcmt-south ZN NECB System 3 PSZ Occ Sch Monday\n   ************* Only last 1 lines before error line shown.....\n   *************   4187   Sp-Corner_Class_1_Pod_2_ZN_1_FLR_1 Sys-3 Flr-2 Sch-D HPlcmt-south ZN NECB System 3 PSZ Occ Sch Monday, !- Name\n   ** Warning ** IP: IDF line~4187 Alpha Argument length exceeds maximum, will be truncated=  Sp-Corner_Class_1_Pod_2_ZN_1_FLR_1 Sys-3 Flr-2 Sch-D HPlcmt-south ZN NECB System 3 PSZ Occ Sch Monda\n   **   ~~~   ** Will be processed as Alpha=SP-CORNER_CLASS_1_POD_2_ZN_1_FLR_1 SYS-3 FLR-2 SCH-D HPLCMT-SOUTH ZN NECB SYSTEM 3 PSZ OCC SCH MONDAY\n   ************* IDF Context for following error/warning message:\n   ************* Note -- lines truncated at 300 characters, if necessary...\n   *************   4201 Schedule:Day:Interval,\n   ************* indicated Name=Sp-Corner_Class_1_Pod_2_ZN_1_FLR_1 Sys-3 Flr-2 Sch-D HPlcmt-south ZN NECB System 3 PSZ Occ Sch Tuesday\n   ************* Only last 1 lines before error line shown.....\n   *************   4202   Sp-Corner_Class_1_Pod_2_ZN_1_FLR_1 Sys-3 Flr-2 Sch-D HPlcmt-south ZN NECB System 3 PSZ Occ Sch Tuesday, !- Name\n   ** Warning ** IP: IDF line~4202 Alpha Argument length exceeds maximum, will be truncated=  Sp-Corner_Class_1_Pod_2_ZN_1_FLR_1 Sys-3 Flr-2 Sch-D HPlcmt-south ZN NECB System 3 PSZ Occ Sch Tuesda\n   **   ~~~   ** Will be processed as Alpha=SP-CORNER_CLASS_1_POD_2_ZN_1_FLR_1 SYS-3 FLR-2 SCH-D HPLCMT-SOUTH ZN NECB SYSTEM 3 PSZ OCC SCH TUESDAY\n   ************* IDF Context for following error/warning message:\n   ************* Note -- lines truncated at 300 characters, if necessary...\n   *************   4216 Schedule:Day:Interval,\n   ************* indicated Name=Sp-Corner_Class_1_Pod_2_ZN_1_FLR_1 Sys-3 Flr-2 Sch-D HPlcmt-south ZN NECB System 3 PSZ Occ Sch Wednesday\n   ************* Only last 1 lines before error line shown.....\n   *************   4217   Sp-Corner_Class_1_Pod_2_ZN_1_FLR_1 Sys-3 Flr-2 Sch-D HPlcmt-south ZN NECB System 3 PSZ Occ Sch Wednesday, !- Name\n   ** Warning ** IP: IDF line~4217 Alpha Argument length exceeds maximum, will be truncated=  Sp-Corner_Class_1_Pod_2_ZN_1_FLR_1 Sys-3 Flr-2 Sch-D HPlcmt-south ZN NECB System 3 PSZ Occ Sch Wednesda\n   **   ~~~   ** Will be processed as Alpha=SP-CORNER_CLASS_1_POD_2_ZN_1_FLR_1 SYS-3 FLR-2 SCH-D HPLCMT-SOUTH ZN NECB SYSTEM 3 PSZ OCC SCH WEDNESDAY\n   ************* IDF Context for following error/warning message:\n   ************* Note -- lines truncated at 300 characters, if necessary...\n   *************   4231 Schedule:Day:Interval,\n   ************* indicated Name=Sp-Corner_Class_1_Pod_2_ZN_1_FLR_1 Sys-3 Flr-2 Sch-D HPlcmt-south ZN NECB System 3 PSZ Occ Sch Thursday\n   ************* Only last 1 lines before error line shown.....\n   *************   4232   Sp-Corner_Class_1_Pod_2_ZN_1_FLR_1 Sys-3 Flr-2 Sch-D HPlcmt-south ZN NECB System 3 PSZ Occ Sch Thursday, !- Name\n   ** Warning ** IP: IDF line~4232 Alpha Argument length exceeds maximum, will be truncated=  Sp-Corner_Class_1_Pod_2_ZN_1_FLR_1 Sys-3 Flr-2 Sch-D HPlcmt-south ZN NECB System 3 PSZ Occ Sch Thursda\n   **   ~~~   ** Will be processed as Alpha=SP-CORNER_CLASS_1_POD_2_ZN_1_FLR_1 SYS-3 FLR-2 SCH-D HPLCMT-SOUTH ZN NECB SYSTEM 3 PSZ OCC SCH THURSDAY\n   ************* IDF Context for following error/warning message:\n   ************* Note -- lines truncated at 300 characters, if necessary...\n   *************   4246 Schedule:Day:Interval,\n   ************* indicated Name=Sp-Corner_Class_1_Pod_2_ZN_1_FLR_1 Sys-3 Flr-2 Sch-D HPlcmt-south ZN NECB System 3 PSZ Occ Sch Friday\n   ************* Only last 1 lines before error line shown.....\n   *************   4247   Sp-Corner_Class_1_Pod_2_ZN_1_FLR_1 Sys-3 Flr-2 Sch-D HPlcmt-south ZN NECB System 3 PSZ Occ Sch Friday, !- Name\n   ** Warning ** IP: IDF line~4247 Alpha Argument length exceeds maximum, will be truncated=  Sp-Corner_Class_1_Pod_2_ZN_1_FLR_1 Sys-3 Flr-2 Sch-D HPlcmt-south ZN NECB System 3 PSZ Occ Sch Frida\n   **   ~~~   ** Will be processed as Alpha=SP-CORNER_CLASS_1_POD_2_ZN_1_FLR_1 SYS-3 FLR-2 SCH-D HPLCMT-SOUTH ZN NECB SYSTEM 3 PSZ OCC SCH FRIDAY\n   ************* IDF Context for following error/warning message:\n   ************* Note -- lines truncated at 300 characters, if necessary...\n   *************   4261 Schedule:Day:Interval,\n   ************* indicated Name=Sp-Corner_Class_1_Pod_2_ZN_1_FLR_1 Sys-3 Flr-2 Sch-D HPlcmt-south ZN NECB System 3 PSZ Occ Sch Saturday\n   ************* Only last 1 lines before error line shown.....\n   *************   4262   Sp-Corner_Class_1_Pod_2_ZN_1_FLR_1 Sys-3 Flr-2 Sch-D HPlcmt-south ZN NECB System 3 PSZ Occ Sch Saturday, !- Name\n   ** Warning ** IP: IDF line~4262 Alpha Argument length exceeds maximum, will be truncated=  Sp-Corner_Class_1_Pod_2_ZN_1_FLR_1 Sys-3 Flr-2 Sch-D HPlcmt-south ZN NECB System 3 PSZ Occ Sch Saturda\n   **   ~~~   ** Will be processed as Alpha=SP-CORNER_CLASS_1_POD_2_ZN_1_FLR_1 SYS-3 FLR-2 SCH-D HPLCMT-SOUTH ZN NECB SYSTEM 3 PSZ OCC SCH SATURDAY\n   ************* IDF Con
[...]
psEveKySdALLpsEvd6ySdDLLZtEzgOBfBr0E1V8GvTDVnwa9HNYfBr0I1p8GvRziXwa9COLfBr004x8GvSDjnwaFcR5zuORfBoVxHnOQ5V8GhXs5DlpVZ5G4RdKyqVVi0+YMEjQaRWbBD0YbBL0WLBJ0GkVmwSdVrFJ0GkVmwSdVrFJ0Mstm0ROWsWnQS+3fBr0csunQadVfBp0WsWnQadVfBp0WsWnQadVfBp0WsWnUUGc56RVfBoVxHlOWsWnUcFOnpNW5WkUFoIvl1YtKsUzSNBpFZsEPRhsEvRYsEnQaRWbBJ1WsUnQaRWbBJ1WsUnQyy2bRE5axadBL7d8GvRyy6dBp1V8GnRaxadBp1V8GnRaxadBp1V8GnRaxadRQZznpFV8GhXEeU5axadRwU6ek1blaRTW2y2XVi0K8jJI0GkVmwQ9GGwS9FiwSdBpFZsEnVaxSdBpFZsEnVaxSdDLLZtETlrFp0Evt3wa9HLLp0GnVXwadFrFp0GnVXwadFrFp0GnVXwadFrFp1FBnOekVXwaFcR5TlrFp1HBTp6TVuVpFJY1LJdWLeoeMkjQaRWbBD0YbBL0WLBJ0GkVmwSdVrFJ0GkVmwSdVrFJ0Mstm0RusTUujbxqVVwaeYWsuDTyalxxaeSVv+LSyKv5xqWRVw6OSyOvUhyXRl4ROS6NCuI8t/Qcl0YFcZ5bsI5Lo4KdPCetWml8L1PhdVnRWZyIQN6vKshmhWNr8d2onlWALSwVuyoLHcvkfTgL3LjWbtaFZbXroqV+s9vlys0+pBhP1a5dt+skchRG89MHL16UVX66/xK1p1MHl5Ero6uZqnJcuqHimK9zfJJOPIvkAkMVal72+5brfsMMM8wwwwwzzDDDDDPMMMMMM8wwwwwzzDDDDDPMMMMMM8wwwwwzzDDDDDPMMMMMM8wwwwwzzDDDDDPMMMMMM8wwwwwzzDDD/Lcyz83wTkaR58pPjnqx1jKbr3xfVb0aG6+/GnstI0/Gy9drjfrqBeKpHyam7wWy8BXZ+KX3dIvfrI3N7NPz09B3Ei8MUigjTuS00ZfDMJJGuTefP8qRDNz1G1qcq3WaddFSby431YvM6ofhy2GiwApcr9yavZFMzoNE9U8qMZwFg4y0tiv+KHCxIpRPrW8K3+VWhzcUtWTsxWacjUo5IXU8a2Sm/XfuDMa1/wHrelvhq1fHU/al3940jD3l8Cw9XeZuVody8wJVFN7rIa2wvMCVKh4aVl2z9eq43bTh0JO+mm+1ZZ8u4mQUhbOpdMXPP4t/LM8/mL2xEy/ff1cBtvvcOn/RmnaI6YxGF0rD9GUwSsbinbDFv4Vx6vuGOF6/Iva9gaw1rN2b5vfdwnj7y52EkajdprfS/EXcpjLLqbrUVef+ma44+gOkDjWNl/5ubr+bP+RcnJycLDpvM4+Z1+Ww3+re6uroR9L5sUnjR802uter/lre3Yma1moyLGdKVsjB7Dlx7I0C6XZViYj4JuvJ75t15Wqgp7N4XNt0LNIhPV6M5+aR5PvHZe7SVFduqhInUfhDltNZXLupUjh1Bl4yLye1vHjju8okVlKbelktJOvLyibhob34qGMVzusLj2gIS9ebTriVZ32sZ7tqqesfi3IKdeztiS+/fxX/vfz9SlxfXn397fOv4uPlr791xYfzq/NyDi7SVVs+OCpFE0ko4jBKRDCbpPNgILKSJrFw4kGavHjBqITHVd8rP892Zqcu+uUXl0gmsygQUyeK5YUfOknNUUv+bjqUz871s3OlOrM4RXsmu7yFIseP26308pR/ZuGeBXttx5VDZ+YnYhqF6Romd+pi56fDw273/Hxny4VngAMc4AAHOMABDnCAAxzgAOfviSPi2ST9J7BwpTopXGeuiCLpggY0oAENaEADGtCABjSgAQ1o8mnus0ez/kTT92cSOMABDnCAAxzgAAc4wAEOcICzCc7TdwMt9d3A6xn13cCWlf2F7fR0f//oCKQgBSlIQQpSkIIUpCAFKUhBClKQvg1SOyN1Eoq0mZG2WrZ92AEpSEEKUpCCFKQgBSlIQQpSkIIUpG+DtKVILyKPILWPMlLLOjhotUAKUpCCFKQgBSlIQQpSkIIUpCAF6dsg3VekX8czivQwIz1Kj/Z7kIIUpCAFKUhBClKQghSkIAUpSEH6NkjbivQ/0qVIDzLSs7Nu9+AApCAFKUhBClKQghSkIAUpSEEKUpC+DdJO9n8mZpIi7WSk3W6nA1KQghSkIAUpSEEKUpCCFKQgBSlI3wrpgSL9FFKVBe12Rnp4aNvtNkhBClKQghSkIAUpSEEKUpCCFKQgrYx0heJGzn2t0NmDmXiJL6/HzlSaiXxIajsfwlkUF2PM/9ryzJvIIPbCwJdx5qHAxd6eOHVd4YjMk7j3krGIw4kUbqugZXw3Mp3pVAZuzVDaxm5Bg9VhOkkS1YwHoy46Tc1G87SRXb5RnMx9ucBrOMFgHEZpe8OXQw3apY9hGCSNe+mNxony0Q99t7yPxdhcTxufZn7S6/rpHO3ZvS+hm/789rln9S4+XvVscT2PGy1x4UcNS1wPxo0z8eGLP5gkjSCM0nH59ll8Pu++V5clciJa4sv1N3E5GKhrd3bzRvrdXjyIvGnyL/Kad3uud/eymWxDO0t9Cc89MQYqDLppzzleIKOedWAZIuvPE8P14qnvzI+9wE9tjb4fDn78YtCAqdfFPYhkPk3bqy7du3XunMXZ3JbquHMiNWXFiXC9ydSXZiDvr+9GNeOnFyDrYr/ZzH4UxqDy6zqJkzq++cPwnb70jWPDlUMnHWoxjcKh50ujvrD0Hoxjy2zWjTvHn8nl7wO1VKVt0tWn2z0/Nx7rpfzYTH5aTH72mfy0mfx0mPwcMPk5ZPJzxOTHanI54prRFteUtrjmtMU1qS2uWW1xTWuLa15bXBPb4prZNtfMttnWaq6ZbXPNbFtrZot4Npmsfbu61I4WSVfDDdlHem7IHtJzQ/aPnhsy7vXckFGv54aMeT03ZMTruSHjXc8NvZFp+mGax/Q2pumHaSbTm5imH6a5TG9hmn6YZjO9gWn6YZrP9Pal6YdrXWaaz/Tepemn/Hy+94JEf9vqq1Pl/ZDdo+mH7B5NP2T3aPohw13TDxnumn7IcNf0Q4a7ph8y3DX90PuXriOuGU3vYLqOuOY0vYfpOuKa1fQupuuIa17T+5iuI66ZTe9kuo7Y1mqumU1vZrqOys/spz9mFH5smNrmmmv/0Ft8jZhBwt6+RGv7Evvbl2hvX6KzfYmD7Uscbl/iaPsSazv7tjQqiG+rggC3Kohwq4IQtyqIcauCILcqiHKrgjC3Kohzu4I4t6vYxyuIc7uCOLc3i/PCbzqWS6sWH31kkKBHg02CHgw2CXos2CToJZdNgl5x2SToBZdNgl5v2STo5ZZNIiet4tOoIL5z0io+jQoiPCet4tOoIMZz0io+jQqiPCet4tOoIM5z0io+jSr28QriPCet4tPYLM4LP51VLq1afFuLQYIeDTYJejDYJOixYJOgl1w2CXrFZZOgF1w2CXq9ZZOgl1s2iZwHAvk06Ceq+DToh634NOjnsPg06Ee0+DTo5xL5NOhHFvk06KcZ+TToBx35NCqI85zHI/k0KojznIcq+TQq2Mlz0qo8jcIvlJRLqxafMGGQoNMqNgl6MNgk6LFgk6DTKjYJOq1ik6DTKjYJOq1ik6CXWzaJnLSKT4Nebvk06OWWT4NOq/g06LSKT4NOq/g06LSKT4NOq/g06LSKT6OCOM9Jq/g0KojznLSKT6OCnTwnrcrTKCwEXy6tWlSKZ5Cg0yo2CXow2CTosWCToNMqNgk6rWKToNMqNgk6rWKToJdbNomctIpPg15u+TTo5ZZPg06r+DTotIpPg06r+DTotIpPg06r+DTotIpPo4I4z0mr+DQqiPOctIpPo4KdPCetytMorLdbLq1aFORlkKDTKjYJejDYJOixYJOg0yo2CTqtYpOg0yo2CTqtYpOgl1s2iZy0ik+DXm75NOjllk+DTqv4NOi0ik+DTqv4NOi0ik+DTqv4NOi0ik+jgjjPSav4NCqI85y0ik+jgp08J63K0ygsa1gurVrUPWSQoNMqNgl6MNgk6LFgk6DTKjYJOq1ik6DTKjYJOq1ik6CXWzaJ3GJrXBp51aq4NPIKWXFp5NW44tLIK3/FpZFX841LI68cHJdGXqU4Lo28InJcGhXEeW7pOS6NCuI8t2Adl0YFO3lOWrXS+F6mwuuyorM4EYG8X1WQzQrH1uK7UT2rAFtYKnZVFjqWyftwFrhxrd2sC8tq10VL/Wa3y5WbfUgxnqpdu27XSeQojOanD168KKv8dP8lak+nDi4jV0ZXM1XluHRDxTFf5/gknXgWyQWGKtS87Pct1/2GGWaYYYYZZphhhhlmmGGGGWaYYYYZZphhhhlmmGGGGWaYYYYZZphhhhlmmGGGGWaYYYYZZphhhhlmmGGGGWaYYYYZZphhhvlvZZ6b4Z2MIs+Vnxz1Yq1lNl/5vqp6NTZefzX2WkaejJev1xr11QvEUz9MTN8LZOErsvFL7+kWv1kbm9mn56eh7yReGKRQRpzIaaMvh2EkjXJvPn+UIxm46ze0OFfrNOuipd5cbqoXmdUPw5fDRIEVuF65NXsjmZwHieqfVGI4CwYZaW1X/FHgYkUon1rfFL7LrQ5vKGrJ2IvNOBuVckLqeNbITPvv3BmMa/8D1vW2wlevjqfsS7+9aRh7yuFZerrM3awO5eYFqii810NaYXmBK1U8NKy6ZuvVcbtpw6EnfTXfass+XcTJKApnU+mKn38W/1iefzB7Yydevv+uAmz3uXX+ojXtENMZjS6UhunLYJSMxTthi38L49T3DXG8fkXsewNZa1i7N83vu4Xx9pc7CSNRu01vpfmLuE1lllN1qavO/TNdcfQHSB1qGi/93dx+N3/IuTg5OVl03mYeM6/LYb/VvdXV0Y+k82OTxo+abXSvV/21vLsTNa3VZFjOlKyQg9lz4tgbBdLtqhIR8U3Wk98368rVQE9n8bi26VikQ3q8GM/NI8n3j8vcpamu3FQlTqLwhyyns7h2U6Vw6gy8ZF5OannxxneVSaykNvWyWkjWl5VNwkN78VHHKpzXFx7REJauN51wK8/6WM921VLXPxblFOrY2xNffv8q/nv5+5W4vrz6+tvnX8XHy19/64oP51fn5RxcpKu2fHBUiiaSUMRhlIhgNknnwUBkJU1i4cSDNHnxglEJj6u+V36e7cxOXfTLLy6RTGZRIKZOFMsLP3SSmqOW/N10KJ+d62fnSnVmcYr2THZ5C0WOH7db6eUp/8zCPQv22o4rh87MT8Q0CtM1TO7Uxc5Ph4fd7vn5zpYLzwAHOMABDnCAAxzgAAc4wAHO3xNHxLNJ+k9g4Up1UrjOXBFF0gUNaEADGtCABjSgAQ1oQAMa0OTT3GePZv2Jpu/PJHCAAxzgAAc4wAEOcIADHOAAZxOcp+8GWuq7gdcz6ruBLSv7C9vp6f7+0RFIQQpSkIIUpCAFKUhBClKQghSkIH0bpHZG6iQUaTMjbbVs+7ADUpCCFKQgBSlIQQpSkIIUpCAFKUjfBmlLkV5EHkFqH2WklnVw0GqBFKQgBSlIQQpSkIIUpCAFKUhBCtK3QbqvSL+OZxTpYUZ6lB7t9yAFKUhBClKQghSkIAUpSEEKUpCC9G2QthXpf6RLkR5kpGdn3e7BAUhBClKQghSkIAUpSEEKUpCCFKQgfRuknez/TMwkRdrJSLvdTgekIAUpSEEKUpCCFKQgBSlIQQpSkL4V0gNF+imkKgva7Yz08NC2222QghSkIAUpSEEKUpCCFKQgBSlIQVoZ6QrFjZz7WqGzBzPxEl9ej52pNBP5kNR2PoSzKC7GmP+15Zk3kUHshYEv48xDgYu9PXHqusIRmSdx7yVjEYcTKdxWQcv4bmQ606kM3JqhtI3dggarw3SSJKoZD0ZddJqajeZpI7t8oziZ+3KB13CCwTiM0vaGL4catEsfwzBIGvfSG40T5aMf+m55H4uxuZ42Ps38pNf10znas3tfQrfX6n373LN6Fx+vepa4nseNlrjwo4Ytrgfjxpn48MUfTJJGEEbpuHz7LD6fd9+ryxI5ES3x5fqbuBwM1LU7u3kj/W4vHkTeNPkXec27Pde7e9lMtqGdpb6E554YAxUG3bTnHC+QUc86sA2R9eeJ4Xrx1Hfmx17gp7ZG3w8HP34xaMDU6+IeRDKfpu1Vl+7dOnfO4mxuS3XcOZGasuJEuN5k6kszkPfXd6Oa8dMLkHWx32xmPwpjUPl1ncRJHd/8YfhOX/rGseHKoZMOtZhG4dDzpVFfWHoPxrFlNuvGnePP5PL3gVqq0jbp6tPtnp8bj/VSfmwmPy0mP/tMftpMfjpMfg6Y/Bwy+Tli8mM1uRxxzWiLa0pbXHPa4prUFtestrimtcU1ry2uiW1xzWyba2bbbGs118y2uWa2rTWzRTybTNa+XV1qR4ukq+GG7CM9N2QP6bkh+0fPDRn3em7IqNdzQ8a8nhsy4vXckPGu54beyDT9MM1jehvT9MM0k+lNTNMP01ymtzBNP0yzmd7ANP0wzWd6+9L0w7UuM81neu/S9FN+Pt97QaK/bfXVqfJ+yO7R9EN2j6Yfsns0/ZDhrumHDHdNP2S4a/ohw13TDxnumn7o/UvXEdeMpncwXUdcc5rew3Qdcc1qehfTdcQ1r+l9TNcR18ymdzJdR2xrNdfMpjczXUflZ/bTHzMKPzZMbXPNtX/oLb5GzCBhb1+itX2J/e1LtLcv0dm+xMH2JQ63L3G0fYm1nX1bGhXEt1VBgFsVRLhVQYhbFcS4VUGQWxVEuVVBmFsVxLldQZzbVezjFcS5XUGc25vFeeE3HculVYuPPjJI0KPBJkEPBpsEPRZsEvSSyyZBr7hsEvSCyyZBr7dsEvRyyyaRk1bxaVQQ3zlpFZ9GBRGek1bxaVQQ4zlpFZ9GBVGek1bxaVQQ5zlpFZ9GFft4BXGek1bxaWwW54WfziqXVi2+rcUgQY8GmwQ9GGwS9FiwSdBLLpsEveKySdALLpsEvd6ySdDLLZtEzgOBfBr0E1V8GvTDVnwa9HNYfBr0I1p8GvRziXwa9COLfBr004x8GvSDjnwaFcR5zuORfBoVxHnOQ5V8GhXs5DlpVZ5G4RdKyqVVi0+YMEjQaRWbBD0YbBL0WLBJ0GkVmwSdVrFJ0GkVmwSdVrFJ0Mstm0ROWsWnQS+3fBr0csunQadVfBp0WsWnQadVfBp0WsWnQadVfBp0WsWnUUGc56RVfBoVxHlOWsWnUcFOnpNW5WkUFoIvl1YtKsUzSNBpFZsEPRhsEvRYsEnQaRWbBJ1WsUnQaRWbBJ1WsUnQyy2bRE5axadBL7d8GvRyy6dBp1V8GnRaxadBp1V8GnRaxadBp1V8GnRaxadRQZznpFV8GhXEeU5axadRwU6ek1blaRTW2y2XVi0K8jJI0GkVmwQ9GGwS9FiwSdBpFZsEnVaxSdBpFZsEnVaxSdDLLZtETlrFp0Evt3wa9HLLp0GnVXwadFrFp0GnVXwadFrFp0GnVXwadFrFp1FBnOekVXwaFcR5TlrFp1HBTp6TVuVpFJY1LJdWLeoeMkjQaRWbBD0YbBL0WLBJ0GkVmwSdVrFJ0GkVmwSdVrFJ0Mstm0RusTUujbxqVVwaeYWsuDTyalxxaeSVv+LSyKv5xqWRVw6OSyOvUhyXRl4ROS6NCuI8t/Qcl0YFcZ5bsI5Lo4KdPCetWml8L1PhdVnRWZyIQN6vKshmhWNr8d2onlWALSwVuyoLHcvkfTgL3LjWbtaFZbXroqV+s9vlys0+pBhP1a5dt+skchRG89MHL16UVX66/xK1p1MHl5Ero6uZqnJcuqHimK9zfJJOPIvkAkMVal72+5brfsMMM8wwwwwzzDDDDDPMMMMMM8wwwwwzzDDDDDPMMMMMM8wwwwwzzDDDDDPMMMMMM8wwwwwzzDDDDDPMMMMMM8wwwwwzzDDD/Lcyz83wTkaR58pPjnqx1jKbr3xfVb0aG6+/GnstI0/Gy9drjfrqBeKpHyam7wWy8BXZ+KX3dIvfrI3N7NPz09B3Ei8MUigjTuS00ZfDMJJGuTefP8qRDNz1G1qcq3WaddFSby431YvM6ofhy2GiwApcr9yavZFMzoNE9U8qMZwFg4y0tiv+KHCxIpRPrW8K3+VWhzcUtWTsxWacjUo5IXU8a2Sm/XfuDMa1/wHrelvhq1fHU/al3940jD3l8Cw9XeZuVody8wJVFN7rIa2wvMCVKh4aVl2z9eq43bTh0JO+mm+1ZZ8u4mQUhbOpdMXPP4t/LM8/mL2xEy/ff1cBtvvcOn/RmnaI6YxGF0rD9GUwSsbinbDFv4Vx6vuGOF6/Iva9gaw1rN2b5vfdwnj7y52EkajdprfS/EXcpjLLqbrUVef+ma44+gOkDjWNl/5ubr+bP+RcnJycLDpvM4+Z1+Ww3+re6uroR9L5sUnjR802uter/lre3Yma1moyLGdKVsjB7Dlx7I0C6XZViYj4JuvJ75t15Wqgp7N4XNt0LNIhPV6M5+aR5PvHZe7SVFduqhInUfhDltNZXLupUjh1Bl4yLye1vHjju8okVlKbelktJOvLyibhob34qGMVzusLj2gIS9ebTriVZ32sZ7tqqesfi3IKdeztiS+/fxX/vfz9SlxfXn397fOv4uPlr791xYfzq/NyDi7SVVs+OCpFE0ko4jBKRDCbpPNgILKSJrFw4kGavHjBqITHVd8rP892Zqcu+uUXl0gmsygQUyeK5YUfOknNUUv+bjqUz871s3OlOrM4RXsmu7yFIseP26308pR/ZuGeBXttx5VDZ+YnYhqF6Romd+pi56fDw273/Hxny4VngAMc4AAHOMABDnCAAxzgAOfviSPi2ST9J7BwpTopXGeuiCLpggY0oAENaEADGtCABjSgAQ1o8mnus0ez/kTT92cSOMABDnCAAxzgAAc4wAEOcICzCc7TdwMt9d3A6xn13cCWlf2F7fR0f//oCKQgBSlIQQpSkIIUpCAFKUhBClKQvg1SOyN1Eoq0mZG2WrZ92AEpSEEKUpCCFKQgBSlIQQpSkIIUpG+DtKVILyKPILWPMlLLOjhotUAKUpCCFKQgBSlIQQpSkIIUpCAF6dsg3VekX8czivQwIz1Kj/Z7kIIUpCAFKUhBClKQghSkIAUpSEH6NkjbivQ/0qVIDzLSs7Nu9+AApCAFKUhBClKQghSkIAUpSEEKUpC+DdJO9n8mZpIi7WSk3W6nA1KQghSkIAUpSEEKUpCCFKQgBSlI3wrpgSL9FFKVBe12Rnp4aNvtNkhBClKQghSkIAUpSEEKUpCCFKQgrYx0heJGzn2t0NmDmXiJL6/HzlSaiXxIajsfwlkUF2PM/9ryzJvIIPbCwJdx5qHAxd6eOHVd4YjMk7j3krGIw4kUbqugZXw3Mp3pVAZuzVDaxm5Bg9VhOkkS1YwHoy46Tc1G87SRXb5RnMx9ucBrOMFgHEZpe8OXQw3apY9hGCSNe+mNxony0Q99t7yPxdhcTxufZn7S6/rpHO3ZvS+h22v1vn3uWb2Lj1c9W1zP40ZLXPhRwxLXg3HjTHz44g8mSSMIo3Rcvn0Wn8+779VliZyIlvhy/U1cDgbq2p3dvJF+txcPIm+a/Iu85t2e6929bCbb0M5SX8JzT4yBCoNu2nOOF8ioZx20DJH154nhevHUd+bHXuCntkbfDwc/fjFowNTr4h5EMp+m7VWX7t06d87ibG5Lddw5kZqy4kS43mTqSzOQ99d3o5rx0wuQdbHfbGY/CmNQ+XWdxEkd3/xh+E5f+sax4cqhkw61mEbh0POlUV9Yeg/GsWU268ad48/k8veBWqrSNunq0+2enxuP9VJ+bCY/LSY/+0x+2kx+Okx+Dpj8HDL5OWLyYzW5HHHNaItrSltcc9rimtQW16y2uKa1xTWvLa6JbXHNbJtrZttsazXXzLa5ZratNbNFPJtM1r5dXWpHi6Sr4YbsIz03ZA/puSH7R88NGfd6bsio13NDxryeGzLi9dyQ8a7nht7INP0wzWN6G9P0wzST6U1M0w/TXKa3ME0/TLOZ3sA0/TDNZ3r70vTDtS4zzWd679L0U34+33tBor9t9dWp8n7I7tH0Q3aPph+yezT9kOGu6YcMd00/ZLhr+iHDXdMPGe6afuj9S9cR14ymdzBdR1xzmt7DdB1xzWp6F9N1xDWv6X1M1xHXzKZ3Ml1HbGs118ymNzNdR+Vn9tMfMwo/Nkxtc821f+gtvkbMIGFvX6K1fYn97Uu0ty/R2b7EwfYlDrcvcbR9ibWdfVsaFcS3VUGAWxVEuFVBiFsVxLhVQZBbFUS5VUGYWxXEuV1BnNtV7OMVxLldQZzbm8V54Tcdy6VVi48+MkjQo8EmQQ8GmwQ9FmwS9JLLJkGvuGwS9ILLJkGvt2wS9HLLJpGTVvFpVBDfOWkVn0YFEZ6TVvFpVBDjOWkVn0YFUZ6TVvFpVBDnOWkVn0YV+3gFcZ6TVvFpbBbnhZ/OKpdWLb6txSBBjwabBD0YbBL0WLBJ0EsumwS94rJJ0AsumwS93rJJ0M9GsUnkPBDIp0E/UcWnQT9sxadBP4fFp0E/osWnQT+XyKdBP7LIp0E/zcinQT/oyKdRQZznpFV8GlXs4xVs5DlpFZ/GZlt54RdKyqVVi0+YMEjQo8EmQQ8GmwQ9FmwSdFrFJkGnVWwSdFrFJkGnVWwS9HLLJpGTVvFp0GkVnwadVvFp0GkVnwadVvFp0GkVnwadVvFp0GkVnwadVvFpVBDnOWkVn0YV+3gFG3lOWsWnsdlWXlgIvlxatagUzyBBjwabBD0YbBL0WLBJ0GkVmwSdVrFJ0GkVmwSdVrFJ0Mstm0ROWsWnQadVfBp0WsWnQadVfBp0WsWnQadVfBp0WsWnQadVfBp0WsWnUUGc56RVfBpV7OMVbOQ5aRWfxmZbeWG93XJp1aIgL4MEPRpsEvRgsEnQY8EmQadVbBJ0WsUmQadVbBJ0WsUmQS+3bBI5aRWfBp1W8WnQaRWfBp1W8WnQaRWfBp1W8WnQaRWfBp1W8WnQaRWfRgVxnpNW8WlUsY9XsJHnpFV8Gptt5YVlDculVYu6hwwS9GiwSdCDwSZBjwWbBJ1WsUnQaRWbBJ1WsUnQaRWbRF7dKSaJ3GJrXBp51aq4NPIKWXFp5NW44tLIK3/FpZFX841LI68cHJdGXqU4Lo28InJcGhXEeU5axadRxT5ewUaek1bxaRRv5d/LVHhdVnQWJyKQ96sKslnh2Fp8N6pnFWALS8WuykLHMnkfzgI3rrWbdWFZ7bpoqd/sdrlysw8pxlO1a9ftOokchdH89MGLF2WVn+6/RO3p1MFl5MroaqaqHJduqDjm6xyfpBPPIrnAUIWal/2+5brfMMMMM8wwwwwzzDDDDDPMMMMMM8wwwwwzzDDDDDPMMMMMM8wwwwwzzDDDDDPMMMMMM8wwwwwzzDDDDDPMMMMMM8wwwwwzzDD/rcxzM7yTUeS58pOjXqy1zOYr31dVr8bG66/GXsvIk/Hy9VqjvnqBeOqHiel7gSx8RTZ+6T3d4jdrYzP79Pw09J3EC4MUyogTOW305TCMpFHuzeePciQDd/2GFudqnWZdtNSby031IrP6YfhymCiwAtcrt2ZvJJPzIFH9k0oMZ8EgI63tij8KXKwI5VPrm8J3udXhDUUtGXuxGWejUk5IHc8amWn/nTuDce1/wLreVvjq1fGUfem3Nw1jTzk8S0+XuZvVody8QBWF93pIKywvcKWKh4ZV12y9Om43bTj0pK/mW23Zp4s4GUXhbCpd8fPP4h/L8w9mb+zEy/ffVYDtPrfOX7SmHWI6o9GF0jB9GYySsXgnbPFvYZz6viGO16+IfW8gaw1r96b5fbcw3v5yJ2EkarfprTR/EbepzHKqLnXVuX+mK47+AKlDTeOlv5vb7+YPORcnJyeLztvMY+Z1Oey3ure6OvqRdH5s0vhRs43u9aq/lnd3oqa1mgzLmZIVcjB7Thx7o0C6XVUiIr7JevL7Zl25GujpLB7XNh2LdEiPF+O5eST5/nGZuzTVlZuqxEkU/pDldBbXbqoUTp2Bl8zLSS0v3viuMomV1KZeVgvJ+rKySXhoLz7qWIXz+sIjGsLS9aYTbuVZH+vZrlrq+seinEIde3viy+9fxX8vf78S15dXX3/7/Kv4ePnrb13x4fzqvJyDi3TVlg+OStFEEoo4jBIRzCbpPBiIrKRJLJx4kCYvXjAq4XHV98rPs53ZqYt++cUlksksCsTUiWJ54YdOUnPUkr+bDuWzc/3sXKnOLE7Rnskub6HI8eN2K7085Z9ZuGfBXttx5dCZ+YmYRmG6hsmdutj56fCw2z0/39ly4RngAAc4wAEOcIADHOAABzjA+XviiHg2Sf8JLFypTgrXmSuiSLqgAQ1oQAMa0IAGNKABDWhAA5p8mvvs0aw/0fT9mQQOcIADHOAABzjAAQ5wgAMc4GyC8/TdQEt9N/B6Rn03sGVlf2E7Pd3fPzoCKUhBClKQghSkIAUpSEEKUpCCFKRvg9TOSJ2EIm1mpK2WbR92QApSkIIUpCAFKUhBClKQghSkIAXp2yBtKdKLyCNI7aOM1LIODlotkIIUpCAFKUhBClKQghSkIAUpSEH6Nkj3FenX8YwiPcxIj9Kj/R6kIAUpSEEKUpCCFKQgBSlIQQpSkL4N0rYi/Y90KdKDjPTsrNs9OAApSEEKUpCCFKQgBSlIQQpSkIIUpG+DtJP9n4mZpEg7GWm32+mAFKQgBSlIQQpSkIIUpCAFKUhBCtK3QnqgSD+FVGVBu52RHh7adrsNUpCCFKQgBSlIQQpSkIIUpCAFKUgrI12huJFzXyt09mAmXuLL67EzlWYiH5LazodwFsXFGPO/tjzzJjKIvTDwZZx5KHCxtydOXVc4IvMk7r1kLOJwIoXbKmgZ341MZzqVgVszlLaxW9BgdZhOkkQ148Goi05Ts9E8bWSXbxQnc18u8BpOMBiHUdre8OVQg3bpYxgGSeNeeqNxonz0Q98t72MxNtfTxuVw6A1k3Pv2uWf1Lj5e9SxxPY8bLXHhRw1bXA/GjVPx4Ys/mCSNOJylg/Hts/h83n2vLkvkRLTEl+tv4nIwUNfu7OYN77u9eBB50+Rf5DXv9lzv7mUz2YZ2lvoSnntiDNTc76bd5XiBjHrWwb4hsk48MVwvnvrO/NgL/NTW6Pvh4McvBg2Yel3cg0jm07S96se9W+fOWZzNbamOOydS81ScCNebTH1pBvL++m5UM356AbIu9pvN7Edh4Cm/rpM4qeObPwzf6UvfODZcOXRmfiKmUTj0fGnUF5beg3Fsmc26cef4M7n8faDWp7RNuuR0u+fnxmO9lB+byU+Lyc8+k582k58Ok58DJj+HTH6OmPxYTS5HXDPa4prSFtectrgmtcU1qy2uaW1xzWuLa2JbXDPb5prZNttazTWzba6ZbWvNbBHPJpO1D1aX2tEi6Wq4IftIzw3ZQ3puyP7Rc0PGvZ4bMur13JAxr+eGjHg9N2S867mhNzJNP0zzmN7GNP0wzWR6E9P0wzSX6S1M0w/TbKY3ME0/TPOZ3r40/XCty0zzmd67NP2Un8/3XpDob1t9daq8H7J7NP2Q3aPph+weTT9kuGv6IcNd0w8Z7pp+yHDX9EOGu6Yfev/SdcQ1o+kdTNcR15ym9zBdR1yzmt7FdB1xzWt6H9N1xDWz6Z1M1xHbWs01s+nNTNdR+Zn99BeMwi8MU9tcc+0feotPEDNI2NuXaG1fYn/7Eu3tS3S2L3GwfYnD7UscbV9ibWfflkYF8W1VEOBWBRFuVRDiVgUxblUQ5FYFUW5VEOZWBXFuVxDndhX7eAVxblcQ5/ZmcV74IcdyadXiS48MEvRosEnQg8EmQY8FmwS95LJJ0CsumwS94LJJ0OstmwS93LJJ5KRVfBoVxHdOWsWnUUGE56RVfBoVxHhOWsWnUUGU56RVfBoVxHlOWsWnUcU+XkGc56RVfBqbxXnh97LKpVWLD2oxSNCjwSZBDwabBD0WbBL0kssmQa+4bBL0gssmQa+3bBL0s1FsEjkPBPJp0E9U8WnQD1vxadDPYfFp0I9o8WnQzyXyadCPLPJp0E8z8mnQDzryaVQQ5zlpFZ9GFft4BRt5TlrFp7HZVl74WZJyadXiuyUMEvRosEnQg8EmQY8FmwSdVrFJ0GkVmwSdVrFJ0GkVmwS93LJJ5KRVfBp0WsWnQadVfBp0WsWnQadVfBp0WsWnQadVfBp0WsWnQadVfBoVxHlOWsWnUcU+XsFGnpNW8WlstpUXVn8vl1YtysMzSNCjwSZBDwabBD0WbBJ0WsUmQadVbBJ0WsUmQadVbBL0cssmkZNW8WnQaRWfBp1W8WnQaRWfBp1W8WnQaRWfBp1W8WnQaRWfBp1W8WlUEOc5aRWfRhX7eAUbeU5axaex2VZeWGS3XFq1qMLLIEGPBpsEPRhsEvRYsEnQaRWbBJ1WsUnQaRWbBJ1WsUnQyy2bRE5axadBp1V8GnRaxadBp1V8GnRaxadBp1V8GnRaxadBp1V8GnRaxadRQZznpFV8GlXs4xVs5DlpFZ/GZlt5YS3DcmnVotghgwQ9GmwS9GCwSdBjwSZBp1VsEnRaxSZBp1VsEnRaxSaRV3eKSSK32BqXRl61Ki6NvEJWXBp5Na64NPLKX3Fp5NV849LIKwfHpZFXKY5LI6+IHJdGBXGek1bxaVSxj1ewkeekVXwaxVv59zIVXpdlnMWJCOT9qoJsVji2Ft+N6lkF2MJSsata0LFM3oezwI1r7WZdWFa7LlrqN7tdrtzsQ4rxVOLadbtOIkdhND998OJFLeWn+y9RcDp1cBm5MrqaqdLGpRsqjvk6xyfpxLNILjBUdeZlv2+52DfMMMMMM8wwwwwzzDDDDDPMMMMMM8wwwwwzzDDDDDPMMMMMM8wwwwwzzDDDDDPMMMMMM8wwwwwzzDDDDDPMMMMMM8wwwwwzzH8r89wM72QUea785KgXay2z+cr3VdWrsfH6q7HXMvJkvHy91qivXiCe+mFi+l4gC1+RjV96T7f4zdrYzD49Pw19J/HCIIUy4kROG305DCNplHvz+aMcycBdv6HFuVqnWRct9eZyU73IrH4YvhwmCqzA9cqt2RvJ5DxIVP+kEsNZMMhIa7vijwIXK0L51Pqm8F1udXhDUUvGXmzG2aiUE1LHs0Zm2n/nzmBc+x+wrrcVvnp1PGVf+u1Nw9hTDs/S02XuZnUoNy9QReG9HtIKywtcqeKhYdU1W6+O200bDj3pq/lWW/bpIk5GUTibSlf8/LP4x/L8g9kbO/Hy/XcVYLvPrfMXrWmHmM5odKE0TF8Go2Qs3glb/FsYp75viOP1K2LfG8haw9q9aX7fLYy3v9xJGInabXorzV/EbSqznKpLXXXun+mKoz9A6lDTeOnv5va7+UPOxcnJyaLzNvOYeV0O+63ura6OfiSdH5s0ftRso3u96q/l3Z2oaa0mw3KmZIUczJ4Tx94okG5XlYiIb7Ke/L5ZV64GejqLx7VNxyId0uPFeG4eSb5/XOYuTXXlpipxEoU/ZDmdxbWbKoVTZ+Al83JSy4s3vqtMYiW1qZfVQrK+rGwSHtqLjzpW4by+8IiGsHS96YRbedbHerarlrr+sSinUMfenvjy+1fx38vfr8T15dXX3z7/Kj5e/vpbV3w4vzov5+AiXbXlg6NSNJGEIg6jRASzSToPBiIraRILJx6kyYsXjEp4XPW98vNsZ3bqol9+cYlkMosCMXWiWF74oZPUHLXk76ZD+excPztXqjOLU7RnsstbKHL8uN1KL0/5ZxbuWbDXdlw5dGZ+IqZRmK5hcqcudn46POx2z893tlx4BjjAAQ5wgAMc4AAHOMABDnD+njgink3SfwILV6qTwnXmiiiSLmhAAxrQgAY0oAENaEADGtCAJp/mPns06080fX8mgQMc4AAHOMABDnCAAxzgAAc4m+A8fTfQUt8NvJ5R3w1sWdlf2E5P9/ePjkAKUpCCFKQgBSlIQQpSkIIUpCAF6dsgtTNSJ6FImxlpq2Xbhx2QghSkIAUpSEEKUpCCFKQgBSlIQfo2SFuK9CLyCFL7KCO1rIODVgukIAUpSEEKUpCCFKQgBSlIQQpSkL4N0n1F+nU8o0gPM9Kj9Gi/BylIQQpSkIIUpCAFKUhBClKQghSkb4O0rUj/I12K9CAjPTvrdg8OQApSkIIUpCAFKUhBClKQghSkIAXp2yDtZP9nYiYp0k5G2u12OiAFKUhBClKQghSkIAUpSEEKUpCC9K2QHijSTyFVWdBuZ6SHh7bdboMUpCAFKUhBClKQghSkIAUpSEEK0spIVyhu5NzXCp09mImX+PJ67EylmciHpLbzIZxFcTHG/K8tz7yJDGIvDHwZZx4KXOztiVPXFY7IPIl7LxmLOJxI4bYKWsZ3I9OZTmXg1gylbewWNFgdppMkUc14MOqi09RsNE8b2eUbxcnclwu8hhMMxmGUtjd8OdSgXfoYhkHSuJfeaJwoH/3Qd8v7WIzN9bRxORx6Axn3vn3uWb2Lj1c9W1zP40ZLXPhRwxLXg3HjVHz44g8mSSMOZ+lgfPssPp9336vLEjkRLfHl+pu4HAzUtTu7ecP7bi8eRN40+Rd5zbs917t72Uy2oZ2lvoTnnhgDNfe7aXc5XiCjnnXQNkTWiSeG68VT35kfe4Gf2hp9Pxz8+MWgAVOvi3sQyXyatlf9uHfr3DmLs7kt1XHnRGqeihPhepOpL81A3l/fjWrGTy9A1sV+s5n9KAw85dd1Eid1fPOH4Tt96RvHhiuHzsxPxDQKh54vjfrC0nswji2zWTfuHH8mjePOkXn07Dg8qhsDtVqlHtIFqNs9Pzce66W82lvx2tqK1/2teG1vxWtnK14PtuL1cCtej7bi1Wpux+12osvaTnhZ24kvazsBZm0nwqzthJi1nRizthNk1naizN5OlNlb2sO2E2X2dqLMfkWUiXg2max9AHyDDCGSrobTkn2r57Rkz+o5Ldmvek5Lrl16TkuuXHpOS65bek5Lrlp6TkuuWXpOyyYGml63ElNl0wJNr1uJqrJJgabXrcRV2ZRA0+tWIqtsQqDpdSuxVTYd0PS6nf1qK7FVNhfQ9LppbN17QfLaNKCvLijvtWS3anot2a2aXkt2q6bXkkuWpteSS5am15JLlqbXkkuWpteSS5am17L5gK7b7URX2YxA1+124qtsTqDrdjsRVjYr0HW7nRgrmxfout1OlJXNDHTdbmkP206UlU0OdN1qRdn3Mn9wWP5VUZyIQN6v/qCR/R2jFt+N6tkfJAr/crH602Qsk/fhLHDjWrtZF5bVrouW+s1ul/vrx0OK8fQXV9ftOokchdH89MGLF3/ae+qKEn//TB1cRq6MrmbqL22lGyqO+TrHJ+nEs0guMNQfC5dD8Nq/6GZ/SFqXupaRJ+Mlbqq0HJCpHyam+utWoWT80n0Xk8ZmNu+moe8kXhikUEacyGmjL4dhJI1yM+mjHMnAXb+hxblaJ50FLTUT1B/DLPVj+QfTwr8lr9yavZFMzoNE9U8qMZwFg4y0tiv+KPEXU0Uon1rfFMaGOryhqCVjL07ntWpXTkgdzxqZaf+dO4Nx7X/Aut5W+Mu/DS799qZh7CmHZ+npMnezOpSbF6ii8F4PaYXlBa5Ugduw6pqtV8ftpg2HnvTVfKst+3QRJ6MonE2lK37+Wfxjef7B7I2deLmeqADbfW6dv2hNO8R0RqMLpWH6MhglY/FO2OLfwjj1fUMcr18R+95A1hrW7k3z+25hvP3lTsJI1G7TW2n+Im5TmeVUXeqqc/88EZb+AKlDTeOlv5vb7+YPmS5vJyeLztvMY+Z1Oey3ure6OvqRdH5s0vhRs43u9aq/lnd3oqa1mgzLmZJtjGZv8TSQdLPngeKbrCe/b9aVq4GezuJxbdOxSIf0eDGem0eS7x+XuUtTXbmpSpxE4Q9ZTmdx7aZK4dQZeMm8nNTy4o3vKpNYSW3qZbWQrC8rm4SH9uKjjlU4ry88oiEsXW864Vae9bGe7aqlrn8syinUsbcnvvz+Vfz38vcrcX159fW3z7+Kj5e//tYVH86vzss5uEhXbfngqBRNJKGIwzSRDmaTdB4MRJYixsKJB2ny4gWjEh5Xfa/8PNuZnbrol19cIpnMokBMnSiWF37oJDVHLfm76VA+O9fPzpXqzOIU7Zns8haKHD/+Hzy1+ac/wC4fzVR/UP0/eYgUOMABDnCAAxzgAAc4wAEOcN48zl8fcFFEkXRBAxrQgAY0oAENaEADGtCABjT5NH95JFDRqEf8gAMc4AAHOMABDnCAAxzgAAc4/4e1Er/KyVRGTjKLpKhd7KJa4v9T1RL/46gZ90Fm/zmd9D0ZJEINmap8KN1Z2v8NcdC8eCNFEDtvoQhip7IiiNmrp5sWYWLy02Lys8/kp83kp8Pk54DJzyGTnyMmP2vVBV7liGtGW1xT2uKa0xbXpLa4ZrXFNa0trnltcU1si2tm21wz22Zbq7lmts01s22tmV2+aN+aq83L9L3CDdlDm5fie4UbMu43L7f3CjdkzG9eUu8Vbsh4f0XZvNf4YZrH9Db2imJ4r/HDNJXpPewVJe5e44dpNtMb2CsK171mHWSaz/Tu9YpydK/xwzSf6a1r8yJza25eUVbuNX7I7nlF6bjX+CHD/RXl4V7jhwz3V5SAe40fMtxfU+btVY64ZjS9g72meNurHHFNanoTe01Jtlc54prX9D72mkJrr1oZuWY2vZW9pnzaqxxxzWx6N0NRtDdRFA1mmGGGGWaYYYYZZphhhhlmmGGGGeb/l8xzM7yTUeS58pOj/keVZTZRFP/ZnaAo/tOBovhaB4rioyi+xoGi+H8+UBT/zweK4mseKIqPovgvHiiKDxzgAAc4wAEOcIADHOAABzjAeQslJUEDGtCABjSgAQ1oQAMa0IDm7dD8/6aUJXCAAxzgAAc4wAEOcIADHOBsrvd/UBT/zJvIIPbC4P9bTmpx8eiR+IPrSPz8omwF17S0zOTM1LzkSvhB+PQ9Ah+qGk0GmQ9jQ2i46VAGnErKT6kE0RkluTl2XAB2wsIz"
               },
               {
                  "name" : "annual_peak_electric_demand",
                  "units" : "kW",
                  "value" : 2957.0700200000001
               },
               {
                  "name" : "first_year_capital_cost",
                  "units" : "$",
                  "value" : 0
               },
               {
                  "name" : "annual_utility_cost",
                  "units" : "$",
                  "value" : 0
               },
               {
                  "name" : "total_lifecycle_cost",
                  "units" : "$",
                  "value" : 0
               }
            ],
            "step_warnings" : [ "A table in Annual Overview section returned false and was skipped." ]
         }
      }
   ],
   "updated_at" : "20170710T185402Z",
   "weather_file" : "USA_CO_Denver.Intl.AP.725650_TMY3.epw"
}
