{
   "completed_at" : "20170710T191501Z",
   "completed_status" : "Success",
   "created_at" : "2017-07-10 19:10:50 +0000",
   "current_step" : 5,
   "description" : "",
   "eplusout_err" : "Program Version,EnergyPlus, Version 8.7.0-78a111df4a, YMD=2017.07.10 19:12,IDD_Version 8.7.0\n   ************* IDF Context for following error/warning message:\n   ************* Note -- lines truncated at 300 characters, if necessary...\n   *************      5 Building,\n   ************* indicated Name=NECB 2011-MidriseApartment-NECB HDD Method-CAN_PQ_Kuujuaq.719060_CWEC.epw created: 2017-07-10 19:10:56 +0000\n   ************* Only last 1 lines before error line shown.....\n   *************      6   NECB 2011-MidriseApartment-NECB HDD Method-CAN_PQ_Kuujuaq.719060_CWEC.epw created: 2017-07-10 19:10:56 +0000, !- Name\n   ** Warning ** IP: IDF line~6 Alpha Argument length exceeds maximum, will be truncated=  NECB 2011-MidriseApartment-NECB HDD Method-CAN_PQ_Kuujuaq.719060_CWEC.epw created: 2017-07-10 19:10:56 +000\n   **   ~~~   ** Will be processed as Alpha=NECB 2011-MIDRISEAPARTMENT-NECB HDD METHOD-CAN_PQ_KUUJUAQ.719060_CWEC.EPW CREATED: 2017-07-10 19:10:56 +0000\n   ************* Beginning Zone Sizing Calculations\n   ** Warning ** ProcessScheduleInput: Schedule:Day:Interval=\"ECONOMIZER MAX OA FRACTION 100 PCT DEFAULT\", Blank Schedule Type Limits Name input -- will not be validated.\n   ** Warning ** ProcessScheduleInput: Schedule:Day:Interval=\"SCHEDULE DAY 1\", Blank Schedule Type Limits Name input -- will not be validated.\n   ** Warning ** ProcessScheduleInput: Schedule:Day:Interval=\"SCHEDULE DAY 10\", Blank Schedule Type Limits Name input -- will not be validated.\n   ** Warning ** ProcessScheduleInput: Schedule:Day:Interval=\"SCHEDULE DAY 11\", Blank Schedule Type Limits Name input -- will not be validated.\n   ** Warning ** ProcessScheduleInput: Schedule:Day:Interval=\"SCHEDULE DAY 12\", Blank Schedule Type Limits Name input -- will not be validated.\n   ** Warning ** ProcessScheduleInput: Schedule:Day:Interval=\"SCHEDULE DAY 13\", Blank Schedule Type Limits Name input -- will not be validated.\n   ** Warning ** ProcessScheduleInput: Schedule:Day:Interval=\"SCHEDULE DAY 14\", Blank Schedule Type Limits Name input -- will not be validated.\n   ** Warning ** ProcessScheduleInput: Schedule:Day:Interval=\"SCHEDULE DAY 15\", Blank Schedule Type Limits Name input -- will not be validated.\n   ** Warning ** ProcessScheduleInput: Schedule:Day:Interval=\"SCHEDULE DAY 16\", Blank Schedule Type Limits Name input -- will not be validated.\n   ** Warning ** ProcessScheduleInput: Schedule:Day:Interval=\"SCHEDULE DAY 17\", Blank Schedule Type Limits Name input -- will not be validated.\n   ** Warning ** ProcessScheduleInput: Schedule:Day:Interval=\"SCHEDULE DAY 18\", Blank Schedule Type Limits Name input -- will not be validated.\n   ** Warning ** ProcessScheduleInput: Schedule:Day:Interval=\"SCHEDULE DAY 19\", Blank Schedule Type Limits Name input -- will not be validated.\n   ** Warning ** ProcessScheduleInput: Schedule:Day:Interval=\"SCHEDULE DAY 2\", Blank Schedule Type Limits Name input -- will not be validated.\n   ** Warning ** ProcessScheduleInput: Schedule:Day:Interval=\"SCHEDULE DAY 20\", Blank Schedule Type Limits Name input -- will not be validated.\n   ** Warning ** ProcessScheduleInput: Schedule:Day:Interval=\"SCHEDULE DAY 21\", Blank Schedule Type Limits Name input -- will not be validated.\n   ** Warning ** ProcessScheduleInput: Schedule:Day:Interval=\"SCHEDULE DAY 22\", Blank Schedule Type Limits Name input -- will not be validated.\n   ** Warning ** ProcessScheduleInput: Schedule:Day:Interval=\"SCHEDULE DAY 23\", Blank Schedule Type Limits Name input -- will not be validated.\n   ** Warning ** ProcessScheduleInput: Schedule:Day:Interval=\"SCHEDULE DAY 24\", Blank Schedule Type Limits Name input -- will not be validated.\n   ** Warning ** ProcessScheduleInput: Schedule:Day:Interval=\"SCHEDULE DAY 25\", Blank Schedule Type Limits Name input -- will not be validated.\n   ** Warning ** ProcessScheduleInput: Schedule:Day:Interval=\"SCHEDULE DAY 26\", Blank Schedule Type Limits Name input -- will not be validated.\n   ** Warning ** ProcessScheduleInput: Schedule:Day:Interval=\"SCHEDULE DAY 27\", Blank Schedule Type Limits Name input -- will not be validated.\n   ** Warning ** ProcessScheduleInput: Schedule:Day:Interval=\"SCHEDULE DAY 28\", Blank Schedule Type Limits Name input -- will not be validated.\n   ** Warning ** ProcessScheduleInput: Schedule:Day:Interval=\"SCHEDULE DAY 29\", Blank Schedule Type Limits Name input -- will not be validated.\n   ** Warning ** ProcessScheduleInput: Schedule:Day:Interval=\"SCHEDULE DAY 30\", Blank Schedule Type Limits Name input -- will not be validated.\n   ** Warning ** ProcessScheduleInput: Schedule:Day:Interval=\"SCHEDULE DAY 31\", Blank Schedule Type Limits Name input -- will not be validated.\n   ** Warning ** ProcessScheduleInput: Schedule:Day:Interval=\"SCHEDULE DAY 32\", Blank Schedule Type Limits Name input -- will not be validated.\n   ** Warning ** ProcessScheduleInput: Schedule:Day:Interval=\"SCHEDULE DAY 33\", Blank Schedule Type Limits Name input -- will not be validated.\n   ** Warning ** ProcessScheduleInput: Schedule:Day:Interval=\"SCHEDULE DAY 34\", Blank Schedule Type Limits Name input -- will not be validated.\n   ** Warning ** ProcessScheduleInput: Schedule:Day:Interval=\"SCHEDULE DAY 35\", Blank Schedule Type Limits Name input -- will not be validated.\n   ** Warning ** ProcessScheduleInput: Schedule:Day:Interval=\"SCHEDULE DAY 36\", Blank Schedule Type Limits Name input -- will not be validated.\n   ** Warning ** ProcessScheduleInput: Schedule:Day:Interval=\"SCHEDULE DAY 37\", Blank Schedule Type Limits Name input -- will not be validated.\n   ** Warning ** ProcessScheduleInput: Schedule:Day:Interval=\"SCHEDULE DAY 38\", Blank Schedule Type Limits Name input -- will not be validated.\n   ** Warning ** ProcessScheduleInput: Schedule:Day:Interval=\"SCHEDULE DAY 39\", Blank Schedule Type Limits Name input -- will not be validated.\n   ** Warning ** ProcessScheduleInput: Schedule:Day:Interval=\"SCHEDULE DAY 40\", Blank Schedule Type Limits Name input -- will not be validated.\n   ** Warning ** ProcessScheduleInput: Schedule:Day:Interval=\"SCHEDULE DAY 41\", Blank Schedule Type Limits Name input -- will not be validated.\n   ** Warning ** ProcessScheduleInput: Schedule:Day:Interval=\"SCHEDULE DAY 42\", Blank Schedule Type Limits Name input -- will not be validated.\n   ** Warning ** ProcessScheduleInput: Schedule:Day:Interval=\"SCHEDULE DAY 43\", Blank Schedule Type Limits Name input -- will not be validated.\n   ** Warning ** ProcessScheduleInput: Schedule:Day:Interval=\"SCHEDULE DAY 44\", Blank Schedule Type Limits Name input -- will not be validated.\n   ** Warning ** ProcessScheduleInput: Schedule:Day:Interval=\"SCHEDULE DAY 45\", Blank Schedule Type Limits Name input -- will not be validated.\n   ** Warning ** ProcessScheduleInput: Schedule:Day:Interval=\"SCHEDULE DAY 46\", Blank Schedule Type Limits Name input -- will not be validated.\n   ** Warning ** ProcessScheduleInput: Schedule:Day:Interval=\"SCHEDULE DAY 47\", Blank Schedule Type Limits Name input -- will not be validated.\n   ** Warning ** ProcessScheduleInput: Schedule:Day:Interval=\"SCHEDULE DAY 48\", Blank Schedule Type Limits Name input -- will not be validated.\n   ** Warning ** ProcessScheduleInput: Schedule:Day:Interval=\"SCHEDULE DAY 49\", Blank Schedule Type Limits Name input -- will not be validated.\n   ** Warning ** ProcessScheduleInput: Schedule:Day:Interval=\"SCHEDULE DAY 50\", Blank Schedule Type Limits Name input -- will not be validated.\n   ** Warning ** ProcessScheduleInput: Schedule:Day:Interval=\"SCHEDULE DAY 51\", Blank Schedule Type Limits Name input -- will not be validated.\n   ** Warning ** ProcessScheduleInput: Schedule:Day:Interval=\"SCHEDULE DAY 52\", Blank Schedule Type Limits Name input -- will not be validated.\n   ** Warning ** ProcessScheduleInput: Schedule:Day:Interval=\"SCHEDULE DAY 53\", Blank Schedule Type Limits Name input -- will not be validated.\n   ** Warning ** ProcessScheduleInput: Schedule:Day:Interval=\"SCHEDULE DAY 54\", Blank Schedule Type Limits Name input -- will not be validated.\n   ** Warning ** ProcessScheduleInput: Schedule:Day:Interval=\"SCHEDULE DAY 55\", Blank Schedule Type Limits Name input -- will not be validated.\n   ** Warning ** ProcessScheduleInput: Schedule:Day:Interval=\"SCHEDULE DAY 56\", Blank Schedule Type Limits Name input -- will not be validated.\n   ** Warning ** ProcessScheduleInput: Schedule:Day:Interval=\"SCHEDULE DAY 57\", Blank Schedule Type Limits Name input -- will not be validated.\n   ** Warning ** ProcessScheduleInput: Schedule:Day:Interval=\"SCHEDULE DAY 58\", Blank Schedule Type Limits Name input -- will not be validated.\n   ** Warning ** ProcessScheduleInput: Schedule:Day:Interval=\"SCHEDULE DAY 59\", Blank Schedule Type Limits Name input -- will not be validated.\n   ** Warning ** ProcessScheduleInput: Schedule:Day:Interval=\"SCHEDULE DAY 6\", Blank Schedule Type Limits Name input -- will not be validated.\n   ** Warning ** ProcessScheduleInput: Schedule:Day:Interval=\"SCHEDULE DAY 60\", Blank Schedule Type Limits Name input -- will not be validated.\n   ** Warning ** ProcessScheduleInput: Schedule:Day:Interval=\"SCHEDULE DAY 61\", Blank Schedule Type Limits Name input -- will not be validated.\n   ** Warning ** ProcessScheduleInput: Schedule:Day:Interval=\"SCHEDULE DAY 62\", Blank Schedule Type Limits Name input -- will not be validated.\n   ** Warning ** ProcessScheduleInput: Schedule:Day:Interval=\"SCHEDULE DAY 63\", Blank Schedule Type Limits Name input -- will not be validated.\n   ** Warning ** ProcessScheduleInput: Schedule:Day:Interval=\"SCHEDULE DAY 64\", Blank Schedule Type Limits Name input -- will not be validated.\n   ** Warning ** ProcessScheduleInput: Schedule:Day:Interval=\"SCHEDULE DAY 65\", Blank Schedule Type Limits Name input -- will not be validated.\n   ** Warning ** ProcessScheduleInput: Schedule:Day:Interval=\"SCHEDULE DAY 66\", Blank Schedule Type Limits Name input -- will not be validated.\n   ** Warning ** ProcessScheduleInput: Schedule:Day:Interval=\"SCHEDULE DAY 67\", Blank Schedule Type Limits Name input -- will not be validated.\n   ** Warning ** ProcessScheduleInput: Schedule:Day:Interval=\"SCHEDULE DAY 68\", Blank Schedule Type Limits Name input -- will not be validated.\n   ** Warning ** ProcessScheduleInput: Schedule:Day:Interval=\"SCHEDULE DAY 69\", Blank Schedule Type Limits Name input -- will not be validated.\n   ** Warning ** ProcessScheduleInput: Schedule:Day:Interval=\"SCHEDULE DAY 7\", Blank Schedule Type Limits Name input -- will not be validated.\n   ** Warning ** ProcessScheduleInput: Schedule:Day:Interval=\"SCHEDULE DAY 70\", Blank Schedule Type Limits Name input -- will not be validated.\n   ** Warning ** ProcessScheduleInput: Schedule:Day:Interval=\"SCHEDULE DAY 71\", Blank Schedule Type Limits Name input -- will not be validated.\n   ** Warning ** ProcessScheduleInput: Schedule:Day:Interval=\"SCHEDULE DAY 72\", Blank Schedule Type Limits Name input -- will not be validated.\n   ** Warning ** ProcessScheduleInput: Schedule:Day:Interval=\"SCHEDULE DAY 73\", Blank Schedule Type Limits Name input -- will not be validated.\n   ** Warning ** ProcessScheduleInput: Schedule:Day:Interval=\"SCHEDULE DAY 74\", Blank Schedule Type Limits Name input -- will not be validated.\n   ** Warning ** ProcessScheduleInput: Schedule:Day:Interval=\"SCHEDULE DAY 75\", Blank Schedule Type Limits Name input -- will not be validated.\n   ** Warning ** ProcessScheduleInput: Schedule:Day:Interval=\"SCHEDULE DAY 76\", Blank Schedule Type Limits Name input -- will not be validated.\n   ** Warning ** ProcessScheduleInput: Schedule:Day:Interval=\"SCHEDULE DAY 77\", Blank Schedule Type Limits Name input -- will not be validated.\n   ** Warning ** ProcessScheduleInput: Schedule:Day:Interval=\"SCHEDULE DAY 78\", Blank Schedule Type Limits Name input -- will not be validated.\n   ** Warning ** ProcessScheduleInput: Schedule:Day:Interval=\"SCHEDULE DAY 79\", Blank Schedule Type Limits Name input -- will not be validated.\n   ** Warning ** ProcessScheduleInput: Schedule:Day:Interval=\"SCHEDULE DAY 8\", Blank Schedule Type Limits Name input -- will not be validated.\n   ** Warning ** ProcessScheduleInput: Schedule:Day:Interval=\"SCHEDULE DAY 9\", Blank Schedule Type Limits Name input -- will not be validated.\n   ** Warning ** ProcessScheduleInput: Schedule:Year=\"ECONOMIZER MAX OA FRACTION 100 PCT\", Blank Schedule Type Limits Name input -- will not be validated.\n   ** Warning ** ProcessScheduleInput: Schedule:Year=\"SCHEDULE RULESET 10\", Blank Schedule Type Limits Name input -- will not be validated.\n   ** Warning ** ProcessScheduleInput: Schedule:Year=\"SCHEDULE RULESET 11\", Blank Schedule Type Limits Name input -- will not be validated.\n   ** Warning ** ProcessScheduleInput: Schedule:Year=\"SCHEDULE RULESET 12\", Blank Schedule Type Limits Name input -- will not be validated.\n   ** Warning ** ProcessScheduleInput: Schedule:Year=\"SCHEDULE RULESET 13\", Blank Schedule Type Limits Name input -- will not be validated.\n   ** Warning ** ProcessScheduleInput: Schedule:Year=\"SCHEDULE RULESET 14\", Blank Schedule Type Limits Name input -- will not be validated.\n   ** Warning ** ProcessScheduleInput: Schedule:Year=\"SCHEDULE RULESET 15\", Blank Schedule Type Limits Name input -- will not be validated.\n   ** Warning ** ProcessScheduleInput: Schedule:Year=\"SCHEDULE RULESET 16\", Blank Schedule Type Limits Name input -- will not be validated.\n   ** Warning ** ProcessScheduleInput: Schedule:Year=\"SCHEDULE RULESET 17\", Blank Schedule Type Limits Name input -- will not be validated.\n   ** Warning ** ProcessScheduleInput: Schedule:Year=\"SCHEDULE RULESET 18\", Blank Schedule Type Limits Name input -- will not be validated.\n   ** Warning ** ProcessScheduleInput: Schedule:Year=\"SCHEDULE RULESET 19\", Blank Schedule Type Limits Name input -- will not be validated.\n   ** Warning ** ProcessScheduleInput: Schedule:Year=\"SCHEDULE RULESET 20\", Blank Schedule Type Limits Name input -- will not be validated.\n   ** Warning ** ProcessScheduleInput: Schedule:Year=\"SCHEDULE RULESET 21\", Blank Schedule Type Limits Name input -- will not be validated.\n   ** Warning ** ProcessScheduleInput: Schedule:Year=\"SCHEDULE RULESET 22\", Blank Schedule Type Limits Name input -- will not be validated.\n   ** Warning ** ProcessScheduleInput: Schedule:Year=\"SCHEDULE RULESET 23\", Blank Schedule Type Limits Name input -- will not be validated.\n   ** Warning ** ProcessScheduleInput: Schedule:Year=\"SCHEDULE RULESET 24\", Blank Schedule Type Limits Name input -- will not be validated.\n   ** Warning ** ProcessScheduleInput: Schedule:Year=\"SCHEDULE RULESET 25\", Blank Schedule Type Limits Name input -- will not be validated.\n   ** Warning ** ProcessScheduleInput: Schedule:Year=\"SCHEDULE RULESET 26\", Blank Schedule Type Limits Name input -- will not be validated.\n   ** Warning ** ProcessScheduleInput: Schedule:Year=\"SCHEDULE RULESET 27\", Blank Schedule Type Limits Name input -- will not be validated.\n   ** Warning ** ProcessScheduleInput: Schedule:Year=\"SCHEDULE RULESET 28\", Blank Schedule Type Limits Name input -- will not be validated.\n   ** Warning ** ProcessScheduleInput: Schedule:Year=\"SCHEDULE RULESET 29\", Blank Schedule Type Limits Name input -- will not be validated.\n   ** Warning ** ProcessScheduleInput: Schedule:Year=\"SCHEDULE RULESET 3\", Blank Schedule Type Limits Name input -- will not be validated.\n   ** Warning ** ProcessScheduleInput: Schedule:Year=\"SCHEDULE RULESET 30\", Blank Schedule Type Limits Name input -- will not be validated.\n   ** Warning ** ProcessScheduleInput: Schedule:Year=\"SCHEDULE RULESET 31\", Blank Schedule Type Limits Name input -- will not be validated.\n   ** Warning ** ProcessScheduleInput: Schedule:Year=\"SCHEDULE RULESET 32\", Blank Schedule Type Limits Name input -- will not be validated.\n   ** Warning ** ProcessScheduleInput: Schedule:Year=\"SCHEDULE RULESET 33\", Blank Schedule Type Limits Name input -- will not be validated.\n   ** Warning ** ProcessScheduleInput: Schedule:Year=\"SCHEDULE RULESET 34\", Blank Schedule Type Limits Name input -- will not be validated.\n   ** Warning ** ProcessScheduleInput: Schedule:Year=\"SCHEDULE RULESET 35\", Blank Schedule Type Limits Name input -- will not be validated.\n   ** Warning ** ProcessScheduleInput: Schedule:Year=\"SCHEDULE RULESET 36\", Blank Schedule Type Limits Name input -- will not be validated.\n   ** Warning ** ProcessScheduleInput: Schedule:Year=\"SCHEDULE RULESET 37\", Blank Schedule Type Limits Name input -- will not be validated.\n   ** Warning ** ProcessScheduleInput: Schedule:Year=\"SCHEDULE RULESET 38\", Blank Schedule Type Limits Name input -- will not be validated.\n   ** Warning ** ProcessScheduleInput: Schedule:Year=\"SCHEDULE RULESET 39\", Blank Schedule Type Limits Name input -- will not be validated.\n   ** Warning ** ProcessScheduleInput: Schedule:Year=\"SCHEDULE RULESET 4\", Blank Schedule Type Limits Name input -- will not be validated.\n   ** Warning ** ProcessScheduleInput: Schedule:Year=\"SCHEDULE RULESET 40\", Blank Schedule Type Limits Name input -- will not be validated.\n   ** Warning ** ProcessScheduleInput: Schedule:Year=\"SCHEDULE RULESET 41\", Blank Schedule Type Limits Name input -- will not be validated.\n   ** Warning ** ProcessScheduleInput: Schedule:Year=\"SCHEDULE RULESET 42\", Blank Schedule Type Limits Name input -- will not be validated.\n   ** Warning ** ProcessScheduleInput: Schedule:Year=\"SCHEDULE RULESET 43\", Blank Schedule Type Limits Name input -- will not be validated.\n   ** Warning ** ProcessScheduleInput: Schedule:Year=\"SCHEDULE RULESET 44\", Blank Schedule Type Limits Name input -- will not be validated.\n   ** Warning ** ProcessScheduleInput: Schedule:Year=\"SCHEDULE RULESET 45\", Blank Schedule Type Limits Name input -- will not be validated.\n   ** Warning ** ProcessScheduleInput: Schedule:Year=\"SCHEDULE RULESET 46\", Blank Schedule Type Limits Name input -- will not be validated.\n   ** Warning ** ProcessScheduleInput: Schedule:Year=\"SCHEDULE RULESET 47\", Blank Schedule Type Limits Name input -- will not be validated.\n   ** Warning ** ProcessScheduleInput: Schedule:Year=\"SCHEDULE RULESET 48\", Blank Schedule Type Limits Name input -- will not be validated.\n   ** Warning ** ProcessScheduleInput: Schedule:Year=\"SCHEDULE RULESET 49\", Blank Schedule Type Limits Name input -- will not be validated.\n   ** Warning ** ProcessScheduleInput: Schedule:Year=\"SCHEDULE RULESET 5\", Blank Schedule Type Limits Name input -- will not be validated.\n   ** Warning ** ProcessScheduleInput: Schedule:Year=\"SCHEDULE RULESET 50\", Blank Schedule Type Limits Name input -- will not be validated.\n   ** Warning ** ProcessScheduleInput: Schedule:Year=\"SCHEDULE RULESET 51\", Blank Schedule Type Limits Name input -- will not be validated.\n   ** Warning ** ProcessScheduleInput: Schedule:Year=\"SCHEDULE RULESET 52\", Blank Schedule Type Limits Name input -- will not be validated.\n   ** Warning ** ProcessScheduleInput: Schedule:Year=\"SCHEDULE RULESET 53\", Blank Schedule Type Limits Name input -- will not be validated.\n   ** Warning ** ProcessScheduleInput: Schedule:Year=\"SCHEDULE RULESET 54\", Blank Schedule Type Limits Name input -- will not be validated.\n   ** Warning ** ProcessScheduleInput: Schedule:Year=\"SCHEDULE RULESET 55\", Blank Schedule Type Limits Name input -- will not be validated.\n   ** Warning ** ProcessScheduleInput: Schedule:Year=\"SCHEDULE RULESET 56\", Blank Schedule Type Limits Name input -- will not be validated.\n   ** Warning ** ProcessScheduleInput: Schedule:Year=\"SCHEDULE RULESET 57\", Blank Schedule Type Limits Name input -- will not be validated.\n   ** Warning ** ProcessScheduleInput: Schedule:Year=\"SCHEDULE RULESET 58\", Blank Schedule Type Limits Name input -- will not be validated.\n   ** Warning ** ProcessScheduleInput: Schedule:Year=\"SCHEDULE RULESET 59\", Blank Schedule Type Limits Name input -- will not be validated.\n   ** Warning ** ProcessScheduleInput: Schedule:Year=\"SCHEDULE RULESET 6\", Blank Schedule Type Limits Name input -- will not be validated.\n   ** Warning ** ProcessScheduleInput: Schedule:Year=\"SCHEDULE RULESET 60\", Blank Schedule Type Limits Name input -- will not be validated.\n   ** Warning ** ProcessScheduleInput: Schedule:Year=\"SCHEDULE RULESET 61\", Blank Schedule Type Limits Name input -- will not be validated.\n   ** Warning ** ProcessScheduleInput: Schedule:Year=\"SCHEDULE RULESET 62\", Blank Schedule Type Limits Name input -- will not be validated.\n   ** Warning ** ProcessScheduleInput: Schedule:Year=\"SCHEDULE RULESET 63\", Blank Schedule Type Limits Name input -- will not be validated.\n   ** Warning ** ProcessScheduleInput: Schedule:Year=\"SCHEDULE RULESET 64\", Blank Schedule Type Limits Name input -- will not be validated.\n   ** Warning ** ProcessScheduleInput: Schedule:Year=\"SCHEDULE RULESET 65\", Blank Schedule Type Limits Name input -- will not be validated.\n   ** Warning ** ProcessScheduleInput: Schedule:Year=\"SCHEDULE RULESET 66\", Blank Schedule Type Limits Name input -- will not be validated.\n   ** Warning ** ProcessScheduleInput: Schedule:Year=\"SCHEDULE RULESET 67\", Blank Schedule Type Limits Name input -- will not be validated.\n   ** Warning ** ProcessScheduleInput: Schedule:Year=\"SCHEDULE RULESET 68\", Blank Schedule Type Limits Name input -- will not be validated.\n   ** Warning ** ProcessScheduleInput: Schedule:Year=\"SCHEDULE RULESET 69\", Blank Schedule Type Limits Name input -- will not be validated.\n   ** Warning ** ProcessScheduleInput: Schedule:Year=\"SCHEDULE RULESET 7\", Blank Schedule Type Limits Name input -- will not be validated.\n   ** Warning ** ProcessScheduleInput: Schedule:Year=\"SCHEDULE RULESET 70\", Blank Schedule Type Limits Name input -- will not be validated.\n   ** Warning ** ProcessScheduleInput: Schedule:Year=\"SCHEDULE RULESET 71\", Blank Schedule Type Limits Name input -- will not be validated.\n   ** Warning ** ProcessScheduleInput: Schedule:Year=\"SCHEDULE RULESET 72\", Blank Schedule Type Limits Name input -- will not be validated.\n   ** Warning ** ProcessScheduleInput: Schedule:Year=\"SCHEDULE RULESET 73\", Blank Schedule Type Limits Name input -- will not be validated.\n   ** Warning ** ProcessScheduleInput: Schedule:Year=\"SCHEDULE RULESET 74\", Blank Schedule Type Limits Name input -- will not be validated.\n   ** Warning ** ProcessScheduleInput: Schedule:Year=\"SCHEDULE RULESET 8\", Blank Schedule Type Limits Name input -- will not be validated.\n   ** Warning ** ProcessScheduleInput: Schedule:Year=\"SCHEDULE RULESET 9\", Blank Schedule Type Limits Name input -- will not be validated.\n   ** Warning ** ProcessScheduleInput: Schedule:Constant=\"ALWAYS OFF DISCRETE\", Blank Schedule Type Limits Name input -- will not be validated.\n   ** Warning ** ProcessScheduleInput: Schedule:Constant=\"ALWAYS ON CONTINUOUS\", Blank Schedule Type Limits Name input -- will not be validated.\n   ** Warning ** CheckUsedConstructions: There are 26 nominally unused constructions in input.\n   **   ~~~   ** For explicit details on each unused construction, use Output:Diagnostics,DisplayExtraWarnings;\n   ************* Beginning System Sizing Calculations\n   ** Warning ** GetDXCoils: Coil:Cooling:DX:SingleSpeed=\"COIL COOLING DX SINGLE SPEED 24 7KBTU/HR 11.0EER\", invalid\n   **   ~~~   ** ...Part Load Fraction Correlation Curve Name = DXCOOL-NECB2011-REF-COOLPLFFPLR 16 has out of range value.\n   **   ~~~   ** ...Curve maximum must be <= 1.0, curve max at PLR = 0.99 is 1.015\n   **   ~~~   ** ...Setting curve maximum to 1.0 and simulation continues.\n   ** Warning ** GetDXCoils: Coil:Cooling:DX:SingleSpeed=\"COIL COOLING DX SINGLE SPEED 22 4KBTU/HR 11.0EER\", invalid\n   **   ~~~   ** ...Part Load Fraction Correlation Curve Name = DXCOOL-NECB2011-REF-COOLPLFFPLR 14 has out of range value.\n   **   ~~~   ** ...Curve maximum must be <= 1.0, curve max at PLR = 0.99 is 1.015\n   **   ~~~   ** ...Setting curve maximum to 1.0 and simulation continues.\n   ** Warning ** GetDXCoils: Coil:Cooling:DX:SingleSpeed=\"COIL COOLING DX SINGLE SPEED 21 4KBTU/HR 11.0EER\", invalid\n   **   ~~~   ** ...Part Load Fraction Correlation Curve Name = DXCOOL-NECB2011-REF-COOLPLFFPLR 13 has out of range value.\n   **   ~~~   ** ...Curve maximum must be <= 1.0, curve max at PLR = 0.99 is 1.015\n   **   ~~~   ** ...Setting curve maximum to 1.0 and simulation continues.\n   ** Warning ** GetDXCoils: Coil:Cooling:DX:SingleSpeed=\"COIL COOLING DX SINGLE SPEED 23 10KBTU/HR 10.5EER\", invalid\n   **   ~~~   ** ...Part Load Fraction Correlation Curve Name = DXCOOL-NECB2011-REF-COOLPLFFPLR 15 has out of range value.\n   **   ~~~   ** ...Curve maximum must be <= 1.0, curve max at PLR = 0.99 is 1.015\n   **   ~~~   ** ...Setting curve maximum to 1.0 and simulation continues.\n   ** Warning ** GetDXCoils: Coil:Cooling:DX:SingleSpeed=\"COIL COOLING DX SINGLE SPEED 20 9KBTU/HR 10.6EER\", invalid\n   **   ~~~   ** ...Part Load Fraction Correlation Curve Name = DXCOOL-NECB2011-REF-COOLPLFFPLR 12 has out of range value.\n   **   ~~~   ** ...Curve maximum must be <= 1.0, curve max at PLR = 0.99 is 1.015\n   **   ~~~   ** ...Setting curve maximum to 1.0 and simulation continues.\n   ** Warning ** GetDXCoils: Coil:Cooling:DX:SingleSpeed=\"COIL COOLING DX SINGLE SPEED 25 10KBTU/HR 10.4EER\", invalid\n   **   ~~~   ** ...Part Load Fraction Correlation Curve Name = DXCOOL-NECB2011-REF-COOLPLFFPLR 17 has out of range value.\n   **   ~~~   ** ...Curve maximum must be <= 1.0, curve max at PLR = 0.99 is 1.015\n   **   ~~~   ** ...Setting curve maximum to 1.0 and simulation continues.\n   ** Warning ** GetDXCoils: Coil:Cooling:DX:SingleSpeed=\"COIL COOLING DX SINGLE SPEED 26 10KBTU/HR 10.3EER\", invalid\n   **   ~~~   ** ...Part Load Fraction Correlation Curve Name = DXCOOL-NECB2011-REF-COOLPLFFPLR 18 has out of range value.\n   **   ~~~   ** ...Curve maximum must be <= 1.0, curve max at PLR = 0.99 is 1.015\n   **   ~~~   ** ...Setting curve maximum to 1.0 and simulation continues.\n   ** Warning ** GetDXCoils: Coil:Cooling:DX:SingleSpeed=\"COIL COOLING DX SINGLE SPEED 27 12KBTU/HR 10.0EER\", invalid\n   **   ~~~   ** ...Part Load Fraction Correlation Curve Name = DXCOOL-NECB2011-REF-COOLPLFFPLR 19 has out of range value.\n   **   ~~~   ** ...Curve maximum must be <= 1.0, curve max at PLR = 0.99 is 1.015\n   **   ~~~   ** ...Setting curve maximum to 1.0 and simulation continues.\n   ** Warning ** GetDXCoils: Coil:Cooling:DX:SingleSpeed=\"COIL COOLING DX SINGLE SPEED 6 6KBTU/HR 11.0EER\", invalid\n   **   ~~~   ** ...Part Load Fraction Correlation Curve Name = DXCOOL-NECB2011-REF-COOLPLFFPLR 24 has out of range value.\n   **   ~~~   ** ...Curve maximum must be <= 1.0, curve max at PLR = 0.99 is 1.015\n   **   ~~~   ** ...Setting curve maximum to 1.0 and simulation continues.\n   ** Warning ** GetDXCoils: Coil:Cooling:DX:SingleSpeed=\"COIL COOLING DX SINGLE SPEED 4 5KBTU/HR 11.0EER\", invalid\n   **   ~~~   ** ...Part Load Fraction Correlation Curve Name = DXCOOL-NECB2011-REF-COOLPLFFPLR 22 has out of range value.\n   **   ~~~   ** ...Curve maximum must be <= 1.0, curve max at PLR = 0.99 is 1.015\n   **   ~~~   ** ...Setting curve maximum to 1.0 and simulation continues.\n   ** Warning ** GetDXCoils: Coil:Cooling:DX:SingleSpeed=\"COIL COOLING DX SINGLE SPEED 3 5KBTU/HR 11.0EER\", invalid\n   **   ~~~   ** ...Part Load Fraction Correlation Curve Name = DXCOOL-NECB2011-REF-COOLPLFFPLR 21 has out of range value.\n   **   ~~~   ** ...Curve maximum must be <= 1.0, curve max at PLR = 0.99 is 1.015\n   **   ~~~   ** ...Setting curve maximum to 1.0 and simulation continues.\n   ** Warning ** GetDXCoils: Coil:Cooling:DX:SingleSpeed=\"COIL COOLING DX SINGLE SPEED 2 10KBTU/HR 10.4EER\", invalid\n   **   ~~~   ** ...Part Load Fraction Correlation Curve Name = DXCOOL-NECB2011-REF-COOLPLFFPLR 11 has out of range value.\n   **   ~~~   ** ...Curve maximum must be <= 1.0, curve max at PLR = 0.99 is 1.015\n   **   ~~~   ** ...Setting curve maximum to 1.0 and simulation continues.\n   ** Warning ** GetDXCoils: Coil:Cooling:DX:SingleSpeed=\"COIL COOLING DX SINGLE SPEED 5 9KBTU/HR 10.6EER\", invalid\n   **   ~~~   ** ...Part Load Fraction Correlation Curve Name = DXCOOL-NECB2011-REF-COOLPLFFPLR 23 has out of range value.\n   **   ~~~   ** ...Curve maximum must be <= 1.0, curve max at PLR = 0.99 is 1.015\n   **   ~~~   ** ...Setting curve maximum to 1.0 and simulation continues.\n   ** Warning ** GetDXCoils: Coil:Cooling:DX:SingleSpeed=\"COIL COOLING DX SINGLE SPEED 7 10KBTU/HR 10.3EER\", invalid\n   **   ~~~   ** ...Part Load Fraction Correlation Curve Name = DXCOOL-NECB2011-REF-COOLPLFFPLR 25 has out of range value.\n   **   ~~~   ** ...Curve maximum must be <= 1.0, curve max at PLR = 0.99 is 1.015\n   **   ~~~   ** ...Setting curve maximum to 1.0 and simulation continues.\n   ** Warning ** GetDXCoils: Coil:Cooling:DX:SingleSpeed=\"COIL COOLING DX SINGLE SPEED 9 10KBTU/HR 10.3EER\", invalid\n   **   ~~~   ** ...Part Load Fraction Correlation Curve Name = DXCOOL-NECB2011-REF-COOLPLFFPLR 27 has out of range value.\n   **   ~~~   ** ...Curve maximum must be <= 1.0, curve max at PLR = 0.99 is 1.015\n   **   ~~~   ** ...Setting curve maximum to 1.0 and simulation continues.\n   ** Warning ** GetDXCoils: Coil:Cooling:DX:SingleSpeed=\"COIL COOLING DX SINGLE SPEED 8 12KBTU/HR 9.9EER\", invalid\n   **   ~~~   ** ...Part Load Fraction Correlation Curve Name = DXCOOL-NECB2011-REF-COOLPLFFPLR 26 has out of range value.\n   **   ~~~   ** ...Curve maximum must be <= 1.0, curve max at PLR = 0.99 is 1.015\n   **   ~~~   ** ...Setting curve maximum to 1.0 and simulation continues.\n   ** Warning ** GetDXCoils: Coil:Cooling:DX:SingleSpeed=\"COIL COOLING DX SINGLE SPEED 10 12KBTU/HR 9.9EER\", invalid\n   **   ~~~   ** ...Part Load Fraction Correlation Curve Name = DXCOOL-NECB2011-REF-COOLPLFFPLR 1 has out of range value.\n   **   ~~~   ** ...Curve maximum must be <= 1.0, curve max at PLR = 0.99 is 1.015\n   **   ~~~   ** ...Setting curve maximum to 1.0 and simulation continues.\n   ** Warning ** GetDXCoils: Coil:Cooling:DX:SingleSpeed=\"COIL COOLING DX SINGLE SPEED 15 10KBTU/HR 10.4EER\", invalid\n   **   ~~~   ** ...Part Load Fraction Correlation Curve Name = DXCOOL-NECB2011-REF-COOLPLFFPLR 6 has out of range value.\n   **   ~~~   ** ...Curve maximum must be <= 1.0, curve max at PLR = 0.99 is 1.015\n   **   ~~~   ** ...Setting curve maximum to 1.0 and simulation continues.\n   ** Warning ** GetDXCoils: Coil:Cooling:DX:SingleSpeed=\"COIL COOLING DX SINGLE SPEED 12 8KBTU/HR 10.8EER\", invalid\n   **   ~~~   ** ...Part Load Fraction Correlation Curve Name = DXCOOL-NECB2011-REF-COOLPLFFPLR 3 has out of range value.\n   **   ~~~   ** ...Curve maximum must be <= 1.0, curve max at PLR = 0.99 is 1.015\n   **   ~~~   ** ...Setting curve maximum to 1.0 and simulation continues.\n   ** Warning ** GetDXCoils: Coil:Cooling:DX:SingleSpeed=\"COIL COOLING DX SINGLE SPEED 13 8KBTU/HR 10.8EER\", invalid\n   **   ~~~   ** ...Part Load Fraction Correlation Curve Name = DXCOOL-NECB2011-REF-COOLPLFFPLR 4 has out of range value.\n   **   ~~~   ** ...Curve maximum must be <= 1.0, curve max at PLR = 0.99 is 1.015\n   **   ~~~   ** ...Setting curve maximum to 1.0 and simulation continues.\n   ** Warning ** GetDXCoils: Coil:Cooling:DX:SingleSpeed=\"COIL COOLING DX SINGLE SPEED 14 10KBTU/HR 10.3EER\", invalid\n   **   ~~~   ** ...Part Load Fraction Correlation Curve Name = DXCOOL-NECB2011-REF-COOLPLFFPLR 5 has out of range value.\n   **   ~~~   ** ...Curve maximum must be <= 1.0, curve max at PLR = 0.99 is 1.015\n   **   ~~~   ** ...Setting curve maximum to 1.0 and simulation continues.\n   ** Warning ** GetDXCoils: Coil:Cooling:DX:SingleSpeed=\"COIL COOLING DX SINGLE SPEED 11 10KBTU/HR 10.3EER\", invalid\n   **   ~~~   ** ...Part Load Fraction Correlation Curve Name = DXCOOL-NECB2011-REF-COOLPLFFPLR 2 has out of range value.\n   **   ~~~   ** ...Curve maximum must be <= 1.0, curve max at PLR = 0.99 is 1.015\n   **   ~~~   ** ...Setting curve maximum to 1.0 and simulation continues.\n   ** Warning ** GetDXCoils: Coil:Cooling:DX:SingleSpeed=\"COIL COOLING DX SINGLE SPEED 16 12KBTU/HR 9.9EER\", invalid\n   **   ~~~   ** ...Part Load Fraction Correlation Curve Name = DXCOOL-NECB2011-REF-COOLPLFFPLR 7 has out of range value.\n   **   ~~~   ** ...Curve maximum must be <= 1.0, curve max at PLR = 0.99 is 1.015\n   **   ~~~   ** ...Setting curve maximum to 1.0 and simulation continues.\n   ** Warning ** GetDXCoils: Coil:Cooling:DX:SingleSpeed=\"COIL COOLING DX SINGLE SPEED 19 12KBTU/HR 9.9EER\", invalid\n   **   ~~~   ** ...Part Load Fraction Correlation Curve Name = DXCOOL-NECB2011-REF-COOLPLFFPLR 10 has out of range value.\n   **   ~~~   ** ...Curve maximum must be <= 1.0, curve max at PLR = 0.99 is 1.015\n   **   ~~~   ** ...Setting curve maximum to 1.0 and simulation continues.\n   ** Warning ** GetDXCoils: Coil:Cooling:DX:SingleSpeed=\"COIL COOLING DX SINGLE SPEED 18 14KBTU/HR 9.6EER\", invalid\n   **   ~~~   ** ...Part Load Fraction Correlation Curve Name = DXCOOL-NECB2011-REF-COOLPLFFPLR 9 has out of range value.\n   **   ~~~   ** ...Curve maximum must be <= 1.0, curve max at PLR = 0.99 is 1.015\n   **   ~~~   ** ...Setting curve maximum to 1.0 and simulation continues.\n   ** Warning ** GetDXCoils: Coil:Cooling:DX:SingleSpeed=\"COIL COOLING DX SINGLE SPEED 17 14KBTU/HR 9.5EER\", invalid\n   **   ~~~   ** ...Part Load Fraction Correlation Curve Name = DXCOOL-NECB2011-REF-COOLPLFFPLR 8 has out of range value.\n   **   ~~~   ** ...Curve maximum must be <= 1.0, curve max at PLR = 0.99 is 1.015\n   **   ~~~   ** ...Setting curve maximum to 1.0 and simulation continues.\n   ** Warning ** GetDXCoils: Coil:Cooling:DX:SingleSpeed=\"COIL COOLING DX SINGLE SPEED 1 59KBTU/HR 14.0SEER\", invalid\n   **   ~~~   ** ...Part Load Fraction Correlation Curve Name = DXCOOL-NECB2011-REF-COOLPLFFPLR has out of range value.\n   **   ~~~   ** ...Curve maximum must be <= 1.0, curve max at PLR = 0.99 is 1.015\n   **   ~~~   ** ...Setting curve maximum to 1.0 and simulation continues.\n   ** Warning ** GetDXCoils: Coil:Cooling:DX:SingleSpeed=\"COIL COOLING DX SINGLE SPEED 28 18KBTU/HR 14.0SEER\", invalid\n   **   ~~~   ** ...Part Load Fraction Correlation Curve Name = DXCOOL-NECB2011-REF-COOLPLFFPLR 20 has out of range value.\n   **   ~~~   ** ...Curve maximum must be <= 1.0, curve max at PLR = 0.99 is 1.015\n   **   ~~~   ** ...Setting curve maximum to 1.0 and simulation continues.\n   ************* Beginning Plant Sizing Calculations\n   ** Warning ** The Standard Ratings is calculated for Coil:Cooling:DX:SingleSpeed = COIL COOLING DX SINGLE SPEED 24 7KBTU/HR 11.0EER but not at the AHRI test condition due to curve out of bound.\n   **   ~~~   **  Review the Standard Ratings calculations in the Engineering Reference for this coil type. Also, use Output:Diagnostics, DisplayExtraWarnings for further guidance.\n   ** Warning ** The Standard Ratings is calculated for Coil:Cooling:DX:SingleSpeed = COIL COOLING DX SINGLE SPEED 22 4KBTU/HR 11.0EER but not at the AHRI test condition due to curve out of bound.\n   **   ~~~   **  Review the Standard Ratings calculations in the Engineering Reference for this coil type. Also, use Output:Diagnostics, DisplayExtraWarnings for further guidance.\n   ** Warning ** The Standard Ratings is calculated for Coil:Cooling:DX:SingleSpeed = COIL COOLING DX SINGLE SPEED 21 4KBTU/HR 11.0EER but not at the AHRI test condition due to curve out of bound.\n   **   ~~~   **  Review the Standard Ratings calculations in the Engineering Reference for this coil type. Also, use Output:Diagnostics, DisplayExtraWarnings for further guidance.\n   ** Warning ** The Standard Ratings is calculated for Coil:Cooling:DX:SingleSpeed = COIL COOLING DX SINGLE SPEED 23 10KBTU/HR 10.5EER but not at the AHRI test condition due to curve out of bound.\n   **   ~~~   **  Review the Standard Ratings calculations in the Engineering Reference for this coil type. Also, use Output:Diagnostics, DisplayExtraWarnings for further guidance.\n   ** Warning ** The Standard Ratings is calculated for Coil:Cooling:DX:SingleSpeed = COIL COOLING DX SINGLE SPEED 20 9KBTU/HR 10.6EER but not at the AHRI test condition due to curve out of bound.\n   **   ~~~   **  Review the Standard Ratings calculations in the Engineering Reference for this coil type. Also, use Output:Diagnostics, DisplayExtraWarnings for further guidance.\n   ** Warning ** The Standard Ratings is calculated for Coil:Cooling:DX:SingleSpeed = COIL COOLING DX SINGLE SPEED 25 10KBTU/HR 10.4EER but not at the AHRI test condition due to curve out of bound.\n   **   ~~~   **  Review the Standard Ratings calculations in the Engineering Reference for this coil type. Also, use Output:Diagnostics, DisplayExtraWarnings for further guidance.\n   ** Warning ** The Standard Ratings is calculated for Coil:Cooling:DX:SingleSpeed = COIL COOLING DX SINGLE SPEED 26 10KBTU/HR 10.3EER but not at the AHRI test condition due to curve out of bound.\n   **   ~~~   **  Review the Standard Ratings calculations in the Engineering Reference for this coil type. Also, use Output:Diagnostics, DisplayExtraWarnings for further guidance.\n   ** Warning ** The Standard Ratings is calculated for Coil:Cooling:DX:SingleSpeed = COIL COOLING DX SINGLE SPEED 27 12KBTU/HR 10.0EER but not at the AHRI test condition due to curve out of bound.\n   **   ~~~   **  Review the Standard Ratings calculations in the Engineering Reference for this coil type. Also, use Output:Diagnostics, DisplayExtraWarnings for further guidance.\n   ** Warning ** The Standard Ratings is calculated for Coil:Cooling:DX:SingleSpeed = COIL COOLING DX SINGLE SPEED 6 6KBTU/HR 11.0EER but not at the AHRI test condition due to curve out of bound.\n   **   ~~~   **  Review the Standard Ratings calculations in the Engineering Reference for this coil type. Also, use Output:Diagnostics, DisplayExtraWarnings for further guidance.\n   ** Warning ** The Standard Ratings is calculated for Coil:Cooling:DX:SingleSpeed = COIL COOLING DX SINGLE SPEED 4 5KBTU/HR 11.0EER but not at the AHRI test condition due to curve out of bound.\n   **   ~~~   **  Review the Standard Ratings calculations in the Engineering Reference for this coil type. Also, use Output:Diagnostics, DisplayExtraWarnings for further guidance.\n   ** Warning ** The Standard Ratings is calculated for Coil:Cooling:DX:SingleSpeed = COIL COOLING DX SINGLE SPEED 3 5KBTU/HR 11.0EER but not at the AHRI test condition due to curve out of bound.\n   **   ~~~   **  Review the Standard Ratings calculations in the Engineering Reference for this coil type. Also, use Output:Diagnostics, DisplayExtraWarnings for further guidance.\n   ** Warning ** The Standard Ratings is calculated for Coil:Cooling:DX:SingleSpeed = COIL COOLING DX SINGLE SPEED 2 10KBTU/HR 10.4EER but not at the AHRI test condition due to curve out of bound.\n   **   ~~~   **  Review the Standard Ratings calculations in the Engineering Reference for this coil type. Also, use Output:Diagnostics, DisplayExtraWarnings for further guidance.\n   ** Warning ** The Standard Ratings is calculated for Coil:Cooling:DX:SingleSpeed = COIL COOLING DX SINGLE SPEED 5 9KBTU/HR 10.6EER but not at the AHRI test condition due to curve out of bound.\n   **   ~~~   **  Review the Standard Ratings calculations in the Engineering Reference for this coil type. Also, use Output:Diagnostics, DisplayExtraWarnings for further guidance.\n   ** Warning ** The Standard Ratings is calculated for Coil:Cooling:DX:SingleSpeed = COIL COOLING DX SINGLE SPEED 7 10KBTU/HR 10.3EER but not at the AHRI test condition due to curve out of bound.\n   **   ~~~   **  Review the Standard Ratings calculations in the Engineering Reference for this coil type. Also, use Output:Diagnostics, DisplayExtraWarnings for further guidance.\n   ** Warning ** The Standard Ratings is calculated for Coil:Cooling:DX:SingleSpeed = COIL COOLING DX SINGLE SPEED 9 10KBTU/HR 10.3EER but not at the AHRI test condition due to curve out of bound.\n   **   ~~~   **  Review the Standard Ratings calculations in the Engineering Reference for this coil type. Also, use Output:Diagnostics, DisplayExtraWarnings for further guidance.\n   ** Warning ** The Standard Ratings is calculated for Coil:Cooling:DX:SingleSpeed = COIL COOLING DX SINGLE SPEED 8 12KBTU/HR 9.9EER but not at the AHRI test condition due to curve out of bound.\n   **   ~~~   **  Review the Standard Ratings calculations in the Engineering Reference for this coil type. Also, use Output:Diagnostics, DisplayExtraWarnings for further guidance.\n   ** Warning ** The Standard Ratings is calculated for Coil:Cooling:DX:SingleSpeed = COIL COOLING DX SINGLE SPEED 10 12KBTU/HR 9.9EER but not at the AHRI test condition due to curve out of bound.\n   **   ~~~   **  Review the Standard Ratings calculations in the Engineering Reference for this coil type. Also, use Output:Diagnostics, DisplayExtraWarnings for further guidance.\n   ** Warning ** The Standard Ratings is calculated for Coil:Cooling:DX:SingleSpeed = COIL COOLING DX SINGLE SPEED 15 10KBTU/HR 10.4EER but not at the AHRI test condition due to curve out of bound.\n   **   ~~~   **  Review the Standard Ratings calculations in the Engineering Reference for this coil type. Also, use Output:Diagnostics, DisplayExtraWarnings for further guidance.\n   ** Warning ** The Standard Ratings is calculated for Coil:Cooling:DX:SingleSpeed = COIL COOLING DX SINGLE SPEED 12 8KBTU/HR 10.8EER but not at the AHRI test condition due to curve out of bound.\n   **   ~~~   **  Review the Standard Ratings calculations in the Engineering Reference for this coil type. Also, use Output:Diagnostics, DisplayExtraWarnings for further guidance.\n   ** Warning ** The Standard Ratings is calculated for Coil:Cooling:DX:SingleSpeed = COIL COOLING DX SINGLE SPEED 13 8KBTU/HR 10.8EER but not at the AHRI test condition due to curve out of bound.\n   **   ~~~   **  Review the Standard Ratings calculations in the Engineering Reference for this coil type. Also, use Output:Diagnostics, DisplayExtraWarnings for further guidance.\n   ** Warning ** The Standard Ratings is calculated for Coil:Cooling:DX:SingleSpeed = COIL COOLING DX SINGLE SPEED 14 10KBTU/HR 10.3EER but not at the AHRI test condition due to curve out of bound.\n   **   ~~~   **  Review the Standard Ratings calculations in the Engineering Reference for this coil type. Also, use Output:Diagnostics, DisplayExtraWarnings for further guidance.\n   ** Warning ** The Standard Ratings is calculated for Coil:Cooling:DX:SingleSpeed = COIL COOLING DX SINGLE SPEED 11 10KBTU/HR 10.3EER but not at the AHRI test condition due to curve out of bound.\n   **   ~~~   **  Review the Standard Ratings calculations in the Engineering Reference for this coil type. Also, use Output:Diagnostics, DisplayExtraWarnings for further guidance.\n   ** Warning ** The Standard Ratings is calculated for Coil:Cooling:DX:SingleSpeed = COIL COOLING DX SINGLE SPEED 16 12KBTU/HR 9.9EER but not at the AHRI test condition due to curve out of bound.\n   **   ~~~   **  Review the Standard Ratings calculations in the Engineering Reference for this coil type. Also, use Output:Diagnostics, DisplayExtraWarnings for further guidance.\n   ** Warning ** The Standard Ratings is calculated for Coil:Cooling:DX:SingleSpeed = COIL COOLING DX SINGLE SPEED 19 12KBTU/HR 9.9EER but not at the AHRI test condition due to curve out of bound.\n   **   ~~~   **  Review the Standard Ratings calculations in the Engineering Reference for this coil type. Also, use Output:Diagnostics, DisplayExtraWarnings for further guidance.\n   ** Warning ** The Standard Ratings is calculated for Coil:Cooling:DX:SingleSpeed = COIL COOLING DX SINGLE SPEED 18 14KBTU/HR 9.6EER but not at the AHRI test condition due to curve out of bound.\n   **   ~~~   **  Review the Standard Ratings calculations in the Engineering Reference for this coil type. Also, use Output:Diagnostics, DisplayExtraWarnings for further guidance.\n   ** Warning ** The Standard Ratings is calculated for Coil:Cooling:DX:SingleSpeed = COIL COOLING DX SINGLE SPEED 17 14KBTU/HR 9.5EER but not at the AHRI test condition due to curve out of bound.\n   **   ~~~   **  Review the Standard Ratings calculations in the Engineering Reference for this coil type. Also, use Output:Diagnostics, DisplayExtraWarnings for further guidance.\n   ** Warning ** The Standard Ratings is calculated for Coil:Cooling:DX:SingleSpeed = COIL COOLING DX SINGLE SPEED 1 59KBTU/HR 14.0SEER but not at the AHRI test condition due to curve out of bound.\n   **   ~~~   **  Review the Standard Ratings calculations in the Engineering Reference for this coil type. Also, use Output:Diagnostics, DisplayExtraWarnings for further guidance.\n   ** Warning ** The Standard Ratings is calculated for Coil:Cooling:DX:SingleSpeed = COIL COOLING DX SINGLE SPEED 28 18KBTU/HR 14.0SEER but not at the AHRI test condition due to curve out of bound.\n   **   ~~~   **  Review the Standard Ratings calculations in the Engineering Reference for this coil type. Also, use Output:Diagnostics, DisplayExtraWarnings for further guidance.\n   ** Warning ** Output:Meter: invalid Name=\"GAS:FACILITY\" - not found.\n   ** Warning ** Output:Meter: invalid Name=\"DISTRICTCOOLING:FACILITY\" - not found.\n   ** Warning ** Output:Meter: invalid Name=\"DISTRICTHEATING:FACILITY\" - not found.\n   ** Warning ** Output:Meter:MeterFileOnly: invalid Name=\"GAS:FACILITY\" - not found.\n   ** Warning ** Output:Meter:MeterFileOnly: invalid Name=\"GAS:FACILITY\" - not found.\n   ** Warning ** Output:Meter:MeterFileOnly requested for \"Electricity:Facility\" (TimeStep), already on \"Output:Meter\". Will report to both eplusout.eso and eplusout.mtr\n   ************* Testing Individual Branch Integrity\n   ************* All Branches passed integrity testing\n   ************* Testing Individual Supply Air Path Integrity\n   ************* All Supply Air Paths passed integrity testing\n   ************* Testing Individual Return Air Path Integrity\n   ************* All Return Air Paths passed integrity testing\n   ************* No node connection errors were found.\n   ************* Beginning Simulation\n   ** Warning ** GetInputEconomicsTariff: UtilityCost:Tariff=\"NONEGAS\" missing meter\n   **   ~~~   ** Meter referenced is not present due to a lack of equipment that uses that energy source/meter:\"GAS:FACILITY\".\n   ** Warning ** CalcDoe2DXCoil: Coil:Cooling:DX:SingleSpeed \"COIL COOLING DX SINGLE SPEED 25 10KBTU/HR 10.4EER\" - Air-cooled condenser inlet dry-bulb temperature below 0 C. Outdoor dry-bulb temperature = -25.00\n   **   ~~~   **  ... Occurrence info = RUN PERIOD 1, 01/01 11:23 - 11:30\n   **   ~~~   ** ... Operation at low ambient temperatures may require special performance curves.\n   ** Warning ** CalcDoe2DXCoil: Coil:Cooling:DX:SingleSpeed \"COIL COOLING DX SINGLE SPEED 26 10KBTU/HR 10.3EER\" - Air-cooled condenser inlet dry-bulb temperature below 0 C. Outdoor dry-bulb temperature = -25.10\n   **   ~~~   **  ... Occurrence info = RUN PERIOD 1, 01/01 11:30 - 11:45\n   **   ~~~   ** ... Operation at low ambient temperatures may require special performance curves.\n   ** Warning ** CalcDoe2DXCoil: Coil:Cooling:DX:SingleSpeed \"COIL COOLING DX SINGLE SPEED 27 12KBTU/HR 10.0EER\" - Air-cooled condenser inlet dry-bulb temperature below 0 C. Outdoor dry-bulb temperature = -25.88\n   **   ~~~   **  ... Occurrence info = RUN PERIOD 1, 01/01 12:30 - 12:38\n   **   ~~~   ** ... Operation at low ambient temperatures may require special performance curves.\n   ** Warning ** CalcDoe2DXCoil: Coil:Cooling:DX:SingleSpeed \"COIL COOLING DX SINGLE SPEED 7 10KBTU/HR 10.3EER\" - Air-cooled condenser inlet dry-bulb temperature below 0 C. Outdoor dry-bulb temperature = -25.88\n   **   ~~~   **  ... Occurrence info = RUN PERIOD 1, 01/01 12:30 - 12:38\n   **   ~~~   ** ... Operation at low ambient temperatures may require special performance curves.\n   ** Warning ** CalcDoe2DXCoil: Coil:Cooling:DX:SingleSpeed \"COIL COOLING DX SINGLE SPEED 9 10KBTU/HR 10.3EER\" - Air-cooled condenser inlet dry-bulb temperature below 0 C. Outdoor dry-bulb temperature = -25.88\n   **   ~~~   **  ... Occurrence info = RUN PERIOD 1, 01/01 12:30 - 12:38\n   **   ~~~   ** ... Operation at low ambient temperatures may require special performance curves.\n   ** Warning ** CalcDoe2DXCoil: Coil:Cooling:DX:SingleSpeed \"COIL COOLING DX SINGLE SPEED 26 10KBTU/HR 10.3EER\" - Full load outlet air dry-bulb temperature < 2C. This indicates the possibility of coil frost/freeze. Outlet temperature = 1.66 C.\n   **   ~~~   **  ...Occurrence info = RUN PERIOD 1, 01/05 11:15 - 11:30\n   **   ~~~   ** ... Possible reasons for low outlet air dry-bulb temperatures are: This DX coil\n   **   ~~~   **    1) may have a low inlet air dry-bulb temperature. Inlet air temperature = 14.313 C.\n   **   ~~~   **    2) may have a low air flow rate per watt of cooling capacity. Check inputs.\n   **   ~~~   **    3) is used as part of a HX assisted cooling coil which uses a high sensible effectiveness. Check inputs.\n   ** Warning ** CalcDoe2DXCoil: Coil:Cooling:DX:SingleSpeed \"COIL COOLING DX SINGLE SPEED 25 10KBTU/HR 10.4EER\" - Full load outlet air dry-bulb temperature < 2C. This indicates the possibility of coil frost/freeze. Outlet temperature = 1.54 C.\n   **   ~~~   **  ...Occurrence info = RUN PERIOD 1, 01/05 11:30 - 11:45\n   **   ~~~   ** ... Possible reasons for low outlet air dry-bulb temperatures are: This DX coil\n   **   ~~~   **    1) may have a low inlet air dry-bulb temperature. Inlet air temperature = 14.198 C.\n   **   ~~~   **    2) may have a low air flow rate per watt of cooling capacity. Check inputs.\n   **   ~~~   **    3) is used as part of a HX assisted cooling coil which uses a high sensible effectiveness. Check inputs.\n   ** Warning ** CalcDoe2DXCoil: Coil:Cooling:DX:SingleSpeed \"COIL COOLING DX SINGLE SPEED 7 10KBTU/HR 10.3EER\" - Full load outlet air dry-bulb temperature < 2C. This indicates the possibility of coil frost/freeze. Outlet temperature = 1.67 C.\n   **   ~~~   **  ...Occurrence info = RUN PERIOD 1, 01/05 12:45 - 13:00\n   **   ~~~   ** ... Possible reasons for low outlet air dry-bulb temperatures are: This DX coil\n   **   ~~~   **    1) may have a low inlet air dry-bulb temperature. Inlet air temperature = 14.338 C.\n   **   ~~~   **    2) may have a low air flow rate per watt of cooling capacity. Check inputs.\n   **   ~~~   **    3) is used as part of a HX assisted cooling coil which uses a high sensible effectiveness. Check inputs.\n   ** Warning ** CalcDoe2DXCoil: Coil:Cooling:DX:SingleSpeed \"COIL COOLING DX SINGLE SPEED 9 10KBTU/HR 10.3EER\" - Full load outlet air dry-bulb temperature < 2C. This indicates the possibility of coil frost/freeze. Outlet temperature = 1.80 C.\n   **   ~~~   **  ...Occurrence info = RUN PERIOD 1, 01/05 12:45 - 13:00\n   **   ~~~   ** ... Possible reasons for low outlet air dry-bulb temperatures are: This DX coil\n   **   ~~~   **    1) may have a low inlet air dry-bulb temperature. Inlet air temperature = 14.464 C.\n   **   ~~~   **    2) may have a low air flow rate per watt of cooling capacity. Check inputs.\n   **   ~~~   **    3) is used as part of a HX assisted cooling coil which uses a high sensible effectiveness. Check inputs.\n   ** Warning ** CalcDoe2DXCoil: Coil:Cooling:DX:SingleSpeed \"COIL COOLING DX SINGLE SPEED 16 12KBTU/HR 9.9EER\" - Air-cooled condenser inlet dry-bulb temperature below 0 C. Outdoor dry-bulb temperature = -35.10\n   **   ~~~   **  ... Occurrence info = RUN PERIOD 1, 01/09 12:45 - 13:00\n   **   ~~~   ** ... Operation at low ambient temperatures may require special performance curves.\n   ** Warning ** CalcDoe2DXCoil: Coil:Cooling:DX:SingleSpeed \"COIL COOLING DX SINGLE SPEED 19 12KBTU/HR 9.9EER\" - Air-cooled condenser inlet dry-bulb temperature below 0 C. Outdoor dry-bulb temperature = -35.10\n   **   ~~~   **  ... Occurrence info = RUN PERIOD 1, 01/09 12:45 - 13:00\n   **   ~~~   ** ... Operation at low ambient temperatures may require special performance curves.\n   ** Warning ** CalcDoe2DXCoil: Coil:Cooling:DX:SingleSpeed \"COIL COOLING DX SINGLE SPEED 8 12KBTU/HR 9.9EER\" - Air-cooled condenser inlet dry-bulb temperature below 0 C. Outdoor dry-bulb temperature = -35.10\n   **   ~~~   **  ... Occurrence info = RUN PERIOD 1, 01/09 13:15 - 13:30\n   **   ~~~   ** ... Operation at low ambient temperatures may require special performance curves.\n   ** Warning ** CalcDoe2DXCoil: Coil:Cooling:DX:SingleSpeed \"COIL COOLING DX SINGLE SPEED 10 12KBTU/HR 9.9EER\" - Air-cooled condenser inlet dry-bulb temperature below 0 C. Outdoor dry-bulb temperature = -35.10\n   **   ~~~   **  ... Occurrence info = RUN PERIOD 1, 01/09 13:15 - 13:30\n   **   ~~~   ** ... Operation at low ambient temperatures may require special performance curves.\n   ** Warning ** CalcDoe2DXCoil: Coil:Cooling:DX:SingleSpeed \"COIL COOLING DX SINGLE SPEED 17 14KBTU/HR 9.5EER\" - Air-cooled condenser inlet dry-bulb temperature below 0 C. Outdoor dry-bulb temperature = -26.70\n   **   ~~~   **  ... Occurrence info = RUN PERIOD 1, 01/19 13:53 - 14:00\n   **   ~~~   ** ... Operation at low ambient temperatures may require special performance curves.\n   ** Warning ** CalcDoe2DXCoil: Coil:Cooling:DX:SingleSpeed \"COIL COOLING DX SINGLE SPEED 18 14KBTU/HR 9.6EER\" - Air-cooled condenser inlet dry-bulb temperature below 0 C. Outdoor dry-bulb temperature = -24.48\n   **   ~~~   **  ... Occurrence info = RUN PERIOD 1, 01/21 12:08 - 12:15\n   **   ~~~   ** ... Operation at low ambient temperatures may require special performance curves.\n   ** Warning ** CalcDoe2DXCoil: Coil:Cooling:DX:SingleSpeed \"COIL COOLING DX SINGLE SPEED 28 18KBTU/HR 14.0SEER\" - Full load outlet air dry-bulb temperature < 2C. This indicates the possibility of coil frost/freeze. Outlet temperature = 0.52 C.\n   **   ~~~   **  ...Occurrence info = RUN PERIOD 1, 01/23 07:02 - 07:04\n   **   ~~~   ** ... Possible reasons for low outlet air dry-bulb temperatures are: This DX coil\n   **   ~~~   **    1) may have a low inlet air dry-bulb temperature. Inlet air temperature = 12.167 C.\n   **   ~~~   **    2) may have a low air flow rate per watt of cooling capacity. Check inputs.\n   **   ~~~   **    3) is used as part of a HX assisted cooling coil which uses a high sensible effectiveness. Check inputs.\n   ** Warning ** CalcDoe2DXCoil: Coil:Cooling:DX:SingleSpeed \"COIL COOLING DX SINGLE SPEED 6 6KBTU/HR 11.0EER\" - Air-cooled condenser inlet dry-bulb temperature below 0 C. Outdoor dry-bulb temperature = -12.58\n   **   ~~~   **  ... Occurrence info = RUN PERIOD 1, 02/19 14:30 - 14:45\n   **   ~~~   ** ... Operation at low ambient temperatures may require special performance curves.\n   ** Warning ** CalcDoe2DXCoil: Coil:Cooling:DX:SingleSpeed \"COIL COOLING DX SINGLE SPEED 6 6KBTU/HR 11.0EER\" - Full load outlet air dry-bulb temperature < 2C. This indicates the possibility of coil frost/freeze. Outlet temperature = 1.05 C.\n   **   ~~~   **  ...Occurrence info = RUN PERIOD 1, 02/22 15:30 - 15:45\n   **   ~~~   ** ... Possible reasons for low outlet air dry-bulb temperatures are: This DX coil\n   **   ~~~   **    1) may have a low inlet air dry-bulb temperature. Inlet air temperature = 13.744 C.\n   **   ~~~   **    2) may have a low air flow rate per watt of cooling capacity. Check inputs.\n   **   ~~~   **    3) is used as part of a HX assisted cooling coil which uses a high sensible effectiveness. Check inputs.\n   ** Warning ** CalcDoe2DXCoil: Coil:Cooling:DX:SingleSpeed \"COIL COOLING DX SINGLE SPEED 28 18KBTU/HR 14.0SEER\" - Air-cooled condenser inlet dry-bulb temperature below 0 C. Outdoor dry-bulb temperature = -0.60\n   **   ~~~   **  ... Occurrence info = RUN PERIOD 1, 02/27 08:02 - 08:04\n   **   ~~~   ** ... Operation at low ambient temperatures may require special performance curves.\n   ** Warning ** CalcDoe2DXCoil: Coil:Cooling:DX:SingleSpeed \"COIL COOLING DX SINGLE SPEED 20 9KBTU/HR 10.6EER\" - Air-cooled condenser inlet dry-bulb temperature below 0 C. Outdoor dry-bulb temperature = -9.53\n   **   ~~~   **  ... Occurrence info = RUN PERIOD 1, 03/11 15:30 - 15:45\n   **   ~~~   ** ... Operation at low ambient temperatures may require special performance curves.\n   ** Warning ** CalcDoe2DXCoil: Coil:Cooling:DX:SingleSpeed \"COIL COOLING DX SINGLE SPEED 24 7KBTU/HR 11.0EER\" - Air-cooled condenser inlet dry-bulb temperature below 0 C. Outdoor dry-bulb temperature = -17.80\n   **   ~~~   **  ... Occurrence info = RUN PERIOD 1, 03/21 13:45 - 14:00\n   **   ~~~   ** ... Operation at low ambient temperatures may require special performance curves.\n   ** Warning ** CalcDoe2DXCoil: Coil:Cooling:DX:SingleSpeed \"COIL COOLING DX SINGLE SPEED 5 9KBTU/HR 10.6EER\" - Air-cooled condenser inlet dry-bulb temperature below 0 C. Outdoor dry-bulb temperature = -15.80\n   **   ~~~   **  ... Occurrence info = RUN PERIOD 1, 03/22 16:00 - 16:15\n   **   ~~~   ** ... Operation at low ambient temperatures may require special performance curves.\n   ** Warning ** CalcDoe2DXCoil: Coil:Cooling:DX:SingleSpeed \"COIL COOLING DX SINGLE SPEED 15 10KBTU/HR 10.4EER\" - Air-cooled condenser inlet dry-bulb temperature below 0 C. Outdoor dry-bulb temperature = -5.18\n   **   ~~~   **  ... Occurrence info = RUN PERIOD 1, 04/01 13:00 - 13:15\n   **   ~~~   ** ... Operation at low ambient temperatures may require special performance curves.\n   ** Warning ** CalcDoe2DXCoil: Coil:Cooling:DX:SingleSpeed \"COIL COOLING DX SINGLE SPEED 11 10KBTU/HR 10.3EER\" - Air-cooled condenser inlet dry-bulb temperature below 0 C. Outdoor dry-bulb temperature = -5.90\n   **   ~~~   **  ... Occurrence info = RUN PERIOD 1, 04/01 14:45 - 15:00\n   **   ~~~   ** ... Operation at low ambient temperatures may require special performance curves.\n   ** Warning ** CalcDoe2DXCoil: Coil:Cooling:DX:SingleSpeed \"COIL COOLING DX SINGLE SPEED 23 10KBTU/HR 10.5EER\" - Air-cooled condenser inlet dry-bulb temperature below 0 C. Outdoor dry-bulb temperature = -15.75\n   **   ~~~   **  ... Occurrence info = RUN PERIOD 1, 04/02 08:23 - 08:26\n   **   ~~~   ** ... Operation at low ambient temperatures may require special performance curves.\n   ** Warning ** CalcDoe2DXCoil: Coil:Cooling:DX:SingleSpeed \"COIL COOLING DX SINGLE SPEED 2 10KBTU/HR 10.4EER\" - Air-cooled condenser inlet dry-bulb temperature below 0 C. Outdoor dry-bulb temperature = -15.33\n   **   ~~~   **  ... Occurrence info = RUN PERIOD 1, 04/02 08:35 - 08:40\n   **   ~~~   ** ... Operation at low ambient temperatures may require special performance curves.\n   ** Warning ** CalcDoe2DXCoil: Coil:Cooling:DX:SingleSpeed \"COIL COOLING DX SINGLE SPEED 4 5KBTU/HR 11.0EER\" - Air-cooled condenser inlet dry-bulb temperature below 0 C. Outdoor dry-bulb temperature = -8.58\n   **   ~~~   **  ... Occurrence info = RUN PERIOD 1, 04/02 20:30 - 20:45\n   **   ~~~   ** ... Operation at low ambient temperatures may require special performance curves.\n   ** Warning ** CalcDoe2DXCoil: Coil:Cooling:DX:SingleSpeed \"COIL COOLING DX SINGLE SPEED 4 5KBTU/HR 11.0EER\" - Full load outlet air dry-bulb temperature < 2C. This indicates the possibility of coil frost/freeze. Outlet temperature = -0.28 C.\n   **   ~~~   **  ...Occurrence info = RUN PERIOD 1, 04/02 20:30 - 20:45\n   **   ~~~   ** ... Possible reasons for low outlet air dry-bulb temperatures are: This DX coil\n   **   ~~~   **    1) may have a low inlet air dry-bulb temperature. Inlet air temperature = 12.244 C.\n   **   ~~~   **    2) may have a low air flow rate per watt of cooling capacity. Check inputs.\n   **   ~~~   **    3) is used as part of a HX assisted cooling coil which uses a high sensible effectiveness. Check inputs.\n   ** Warning ** CalcDoe2DXCoil: Coil:Cooling:DX:SingleSpeed \"COIL COOLING DX SINGLE SPEED 3 5KBTU/HR 11.0EER\" - Air-cooled condenser inlet dry-bulb temperature below 0 C. Outdoor dry-bulb temperature = -8.60\n   **   ~~~   **  ... Occurrence info = RUN PERIOD 1, 04/02 21:45 - 22:00\n   **   ~~~   ** ... Operation at low ambient temperatures may require special performance curves.\n   ** Warning ** CalcDoe2DXCoil: Coil:Cooling:DX:SingleSpeed \"COIL COOLING DX SINGLE SPEED 3 5KBTU/HR 11.0EER\" - Full load outlet air dry-bulb temperature < 2C. This indicates the possibility of coil frost/freeze. Outlet temperature = -0.40 C.\n   **   ~~~   **  ...Occurrence info = RUN PERIOD 1, 04/02 21:45 - 22:00\n   **   ~~~   ** ... Possible reasons for low outlet air dry-bulb temperatures are: This DX coil\n   **   ~~~   **    1) may have a low inlet air dry-bulb temperature. Inlet air temperature = 12.235 C.\n   **   ~~~   **    2) may have a low air flow rate per watt of cooling capacity. Check inputs.\n   **   ~~~   **    3) is used as part of a HX assisted cooling coil which uses a high sensible effectiveness. Check inputs.\n   ** Warning ** CalcDoe2DXCoil: Coil:Cooling:DX:SingleSpeed \"COIL COOLING DX SINGLE SPEED 14 10KBTU/HR 10.3EER\" - Air-cooled condenser inlet dry-bulb temperature below 0 C. Outdoor dry-bulb temperature = -15.55\n   **   ~~~   **  ... Occurrence info = RUN PERIOD 1, 04/10 09:30 - 09:35\n   **   ~~~   ** ... Operation at low ambient temperatures may require special performance curves.\n   ** Warning ** CalcDoe2DXCoil: Coil:Cooling:DX:SingleSpeed \"COIL COOLING DX SINGLE SPEED 21 4KBTU/HR 11.0EER\" - Air-cooled condenser inlet dry-bulb temperature below 0 C. Outdoor dry-bulb temperature = -10.58\n   **   ~~~   **  ... Occurrence info = RUN PERIOD 1, 04/15 12:00 - 12:15\n   **   ~~~   ** ... Operation at low ambient temperatures may require special performance curves.\n   ** Warning ** CalcDoe2DXCoil: Coil:Cooling:DX:SingleSpeed \"COIL COOLING DX SINGLE SPEED 21 4KBTU/HR 11.0EER\" - Full load outlet air dry-bulb temperature < 2C. This indicates the possibility of coil frost/freeze. Outlet temperature = -2.30 C.\n   **   ~~~   **  ...Occurrence info = RUN PERIOD 1, 04/15 12:00 - 12:15\n   **   ~~~   ** ... Possible reasons for low outlet air dry-bulb temperatures are: This DX coil\n   **   ~~~   **    1) may have a low inlet air dry-bulb temperature. Inlet air temperature = 10.337 C.\n   **   ~~~   **    2) may have a low air flow rate per watt of cooling capacity. Check inputs.\n   **   ~~~   **    3) is used as part of a HX assisted cooling coil which uses a high sensible effectiveness. Check inputs.\n   ** Warning ** CalcDoe2DXCoil: Coil:Cooling:DX:SingleSpeed \"COIL COOLING DX SINGLE SPEED 22 4KBTU/HR 11.0EER\" - Air-cooled condenser inlet dry-bulb temperature below 0 C. Outdoor dry-bulb temperature = -10.75\n   **   ~~~   **  ... Occurrence info = RUN PERIOD 1, 04/15 12:15 - 12:30\n   **   ~~~   ** ... Operation at low ambient temperatures may require special performance curves.\n   ** Warning ** CalcDoe2DXCoil: Coil:Cooling:DX:SingleSpeed \"COIL COOLING DX SINGLE SPEED 22 4KBTU/HR 11.0EER\" - Full load outlet air dry-bulb temperature < 2C. This indicates the possibility of coil frost/freeze. Outlet temperature = -2.18 C.\n   **   ~~~   **  ...Occurrence info = RUN PERIOD 1, 04/15 12:15 - 12:30\n   **   ~~~   ** ... Possible reasons for low outlet air dry-bulb temperatures are: This DX coil\n   **   ~~~   **    1) may have a low inlet air dry-bulb temperature. Inlet air temperature = 10.461 C.\n   **   ~~~   **    2) may have a low air flow rate per watt of cooling capacity. Check inputs.\n   **   ~~~   **    3) is used as part of a HX assisted cooling coil which uses a high sensible effectiveness. Check inputs.\n   ************* Simulation Error Summary *************\n   ************* There are 9 unused schedules in input.\n   ************* There are 9 unused week schedules in input.\n   ************* There are 17 unused day schedules in input.\n   ************* Use Output:Diagnostics,DisplayUnusedSchedules; to see them.\n   *************\n   ************* ===== Recurring Error Summary =====\n   ************* The following recurring error messages occurred.\n   *************\n   *************  ** Warning ** CalcDoe2DXCoil: Coil:Cooling:DX:SingleSpeed=\"COIL COOLING DX SINGLE SPEED 25 10KBTU/HR 10.4EER\" - Low condenser dry-bulb temperature error continues...\n   *************  **   ~~~   **   This error occurred 4849 total times;\n   *************  **   ~~~   **   during Warmup 0 times;\n   *************  **   ~~~   **   during Sizing 0 times.\n   *************  **   ~~~   **   Max=-2.500000E-002 [C]  Min=-37.15 [C]\n   *************\n   *************  ** Warning ** CalcDoe2DXCoil: Coil:Cooling:DX:SingleSpeed=\"COIL COOLING DX SINGLE SPEED 26 10KBTU/HR 10.3EER\" - Low condenser dry-bulb temperature error continues...\n   *************  **   ~~~   **   This error occurred 4463 total times;\n   *************  **   ~~~   **   during Warmup 0 times;\n   *************  **   ~~~   **   during Sizing 0 times.\n   *************  **   ~~~   **   Max=-2.500000E-002 [C]  Min=-37.15 [C]\n   *************\n   *************  ** Warning ** CalcDoe2DXCoil: Coil:Cooling:DX:SingleSpeed=\"COIL COOLING DX SINGLE SPEED 27 12KBTU/HR 10.0EER\" - Low condenser dry-bulb temperature error continues...\n   *************  **   ~~~   **   This error occurred 3687 total times;\n   *************  **   ~~~   **   during Warmup 0 times;\n   *************  **   ~~~   **   during Sizing 0 times.\n   *************  **   ~~~   **   Max=-2.500000E-002 [C]  Min=-36. [C]\n   *************\n   *************  ** Warning ** CalcDoe2DXCoil: Coil:Cooling:DX:SingleSpeed=\"COIL COOLING DX SINGLE SPEED 7 10KBTU/HR 10.3EER\" - Low condenser dry-bulb temperature error continues...\n   *************  **   ~~~   **   This error occurred 5927 total times;\n   *************  **   ~~~   **   during Warmup 0 times;\n   *************  **   ~~~   **   during Sizing 0 times.\n   *************  **   ~~~   **   Max=-1.387779E-017 [C]  Min=-36. [C]\n   *************\n   *************  ** Warning ** CalcDoe2DXCoil: Coil:Cooling:DX:SingleSpeed=\"COIL COOLING DX SINGLE SPEED 9 10KBTU/HR 10.3EER\" - Low condenser dry-bulb temperature error continues...\n   *************  **   ~~~   **   This error occurred 5872 total times;\n   *************  **   ~~~   **   during Warmup 0 times;\n   *************  **   ~~~   **   during Sizing 0 times.\n   *************  **   ~~~   **   Max=-1.387779E-017 [C]  Min=-36. [C]\n   *************\n   *************  ** Warning ** CalcDoe2DXCoil: Coil:Cooling:DX:SingleSpeed=\"COIL COOLING DX SINGLE SPEED 26 10KBTU/HR 10.3EER\" - Full load outlet temperature indicates a possibility of frost/freeze error continues. Outlet air temperature statistics follow:\n   *************  **   ~~~   **   This error occurred 75 total times;\n   *************  **   ~~~   **   during Warmup 0 times;\n   *************  **   ~~~   **   during Sizing 0 times.\n   *************  **   ~~~   **   Max=1.997976  Min=1.022887\n   *************\n   *************  ** Warning ** CalcDoe2DXCoil: Coil:Cooling:DX:SingleSpeed=\"COIL COOLING DX SINGLE SPEED 25 10KBTU/HR 10.4EER\" - Full load outlet temperature indicates a possibility of frost/freeze error continues. Outlet air temperature statistics follow:\n   *************  **   ~~~   **   This error occurred 156 total times;\n   *************  **   ~~~   **   during Warmup 0 times;\n   *************  **   ~~~   **   during Sizing 0 times.\n   *************  **   ~~~   **   Max=1.999091  Min=0.698593\n   *************\n   *************  ** Warning ** CalcDoe2DXCoil: Coil:Cooling:DX:SingleSpeed=\"COIL COOLING DX SINGLE SPEED 7 10KBTU/HR 10.3EER\" - Full load outlet temperature indicates a possibility of frost/freeze error continues. Outlet air temperature statistics follow:\n   *************  **   ~~~   **   This error occurred 60 total times;\n   *************  **   ~~~   **   during Warmup 0 times;\n   *************  **   ~~~   **   during Sizing 0 times.\n   *************  **   ~~~   **   Max=1.994811  Min=1.200951\n   *************\n   *************  ** Warning ** CalcDoe2DXCoil: Coil:Cooling:DX:SingleSpeed=\"COIL COOLING DX SINGLE SPEED 9 10KBTU/HR 10.3EER\" - Full load outlet temperature indicates a possibility of frost/freeze error continues. Outlet air temperature statistics follow:\n   *************  **   ~~~   **   This error occurred 42 total times;\n   *************  **   ~~~   **   during Warmup 0 times;\n   *************  **   ~~~   **   during Sizing 0 times.\n   *************  **   ~~~   **   Max=1.999612  Min=1.33127\n   *************\n   *************  ** Warning ** CalcDoe2DXCoil: Coil:Cooling:DX:SingleSpeed=\"COIL COOLING DX SINGLE SPEED 16 12KBTU/HR 9.9EER\" - Low condenser dry-bulb temperature error continues...\n   *************  **   ~~~   **   This error occurred 1359 total times;\n   *************  **   ~~~   **   during Warmup 0 times;\n   *************  **   ~~~   **   during Sizing 0 times.\n   *************  **   ~~~   **   Max=-2.500000E-002 [C]  Min=-35.1 [C]\n   *************\n   *************  ** Warning ** CalcDoe2DXCoil: Coil:Cooling:DX:SingleSpeed=\"COIL COOLING DX SINGLE SPEED 19 12KBTU/HR 9.9EER\" - Low condenser dry-bulb temperature error continues...\n   *************  **   ~~~   **   This error occurred 1388 total times;\n   *************  **   ~~~   **   during Warmup 0 times;\n   *************  **   ~~~   **   during Sizing 0 times.\n   *************  **   ~~~   **   Max=-2.500000E-002 [C]  Min=-35.1 [C]\n   *************\n   *************  ** Warning ** CalcDoe2DXCoil: Coil:Cooling:DX:SingleSpeed=\"COIL COOLING DX SINGLE SPEED 8 12KBTU/HR 9.9EER\" - Low condenser dry-bulb temperature error continues...\n   *************  **   ~~~   **   This error occurred 4157 total times;\n   *************  **   ~~~   **   during Warmup 0 times;\n   *************  **   ~~~   **   during Sizing 0 times.\n   *************  **   ~~~   **   Max=-5.551115E-017 [C]  Min=-35.1 [C]\n   *************\n   *************  ** Warning ** CalcDoe2DXCoil: Coil:Cooling:DX:SingleSpeed=\"COIL COOLING DX SINGLE SPEED 10 12KBTU/HR 9.9EER\" - Low condenser dry-bulb temperature error continues...\n   *************  **   ~~~   **   This error occurred 3993 total times;\n   *************  **   ~~~   **   during Warmup 0 times;\n   *************  **   ~~~   **   during Sizing 0 times.\n   *************  **   ~~~   **   Max=-2.500000E-002 [C]  Min=-35.1 [C]\n   *************\n   *************  ** Warning ** CalcDoe2DXCoil: Coil:Cooling:DX:SingleSpeed=\"COIL COOLING DX SINGLE SPEED 17 14KBTU/HR 9.5EER\" - Low condenser dry-bulb temperature error continues...\n   *************  **   ~~~   **   This error occurred 1441 total times;\n   *************  **   ~~~   **   during Warmup 0 times;\n   *************  **   ~~~   **   during Sizing 0 times.\n   *************  **   ~~~   **   Max=-2.500000E-002 [C]  Min=-32.15 [C]\n   *************\n   *************  ** Warning ** CalcDoe2DXCoil: Coil:Cooling:DX:SingleSpeed=\"COIL COOLING DX SINGLE SPEED 18 14KBTU/HR 9.6EER\" - Low condenser dry-bulb temperature error continues...\n   *************  **   ~~~   **   This error occurred 1493 total times;\n   *************  **   ~~~   **   during Warmup 0 times;\n   *************  **   ~~~   **   during Sizing 0 times.\n   *************  **   ~~~   **   Max=-2.500000E-002 [C]  Min=-32.525 [C]\n   *************\n   *************  ** Warning ** CalcDoe2DXCoil: Coil:Cooling:DX:SingleSpeed=\"COIL COOLING DX SINGLE SPEED 28 18KBTU/HR 14.0SEER\" - Full load outlet temperature indicates a possibility of frost/freeze error continues. Outlet air temperature statistics follow:\n   *************  **   ~~~   **   This error occurred 199 total times;\n   *************  **   ~~~   **   during Warmup 0 times;\n   *************  **   ~~~   **   during Sizing 0 times.\n   *************  **   ~~~   **   Max=1.999604  Min=-0.854738\n   *************\n   *************  ** Warning ** CalcDoe2DXCoil: Coil:Cooling:DX:SingleSpeed=\"COIL COOLING DX SINGLE SPEED 6 6KBTU/HR 11.0EER\" - Low condenser dry-bulb temperature error continues...\n   *************  **   ~~~   **   This error occurred 2506 total times;\n   *************  **   ~~~   **   during Warmup 0 times;\n   *************  **   ~~~   **   during Sizing 0 times.\n   *************  **   ~~~   **   Max=-2.500000E-002 [C]  Min=-22.875 [C]\n   *************\n   *************  ** Warning ** CalcDoe2DXCoil: Coil:Cooling:DX:SingleSpeed=\"COIL COOLING DX SINGLE SPEED 6 6KBTU/HR 11.0EER\" - Full load outlet temperature indicates a possibility of frost/freeze error continues. Outlet air temperature statistics follow:\n   *************  **   ~~~   **   This error occurred 49 total times;\n   *************  **   ~~~   **   during Warmup 0 times;\n   *************  **   ~~~   **   during Sizing 0 times.\n   *************  **   ~~~   **   Max=1.99447  Min=1.05017\n   *************\n   *************  ** Warning ** CalcDoe2DXCoil: Coil:Cooling:DX:SingleSpeed=\"COIL COOLING DX SINGLE SPEED 28 18KBTU/HR 14.0SEER\" - Low condenser dry-bulb temperature error continues...\n   *************  **   ~~~   **   This error occurred 17 total times;\n   *************  **   ~~~   **   during Warmup 0 times;\n   *************  **   ~~~   **   during Sizing 0 times.\n   *************  **   ~~~   **   Max=-0.35 [C]  Min=-2.125 [C]\n   *************\n   *************  ** Warning ** CalcDoe2DXCoil: Coil:Cooling:DX:SingleSpeed=\"COIL COOLING DX SINGLE SPEED 20 9KBTU/HR 10.6EER\" - Low condenser dry-bulb temperature error continues...\n   *************  **   ~~~   **   This error occurred 676 total times;\n   *************  **   ~~~   **   during Warmup 0 times;\n   *************  **   ~~~   **   during Sizing 0 times.\n   *************  **   ~~~   **   Max=-5.000000E-002 [C]  Min=-17.6 [C]\n   *************\n   *************  ** Warning ** CalcDoe2DXCoil: Coil:Cooling:DX:SingleSpeed=\"COIL COOLING DX SINGLE SPEED 24 7KBTU/HR 11.0EER\" - Low condenser dry-bulb temperature error continues...\n   *************  **   ~~~   **   This error occurred 1112 total times;\n   *************  **   ~~~   **   during Warmup 0 times;\n   *************  **   ~~~   **   during Sizing 0 times.\n   *************  **   ~~~   **   Max=-2.500000E-002 [C]  Min=-18.5 [C]\n   *************\n   *************  ** Warning ** CalcDoe2DXCoil: Coil:Cooling:DX:SingleSpeed=\"COIL COOLING DX SINGLE SPEED 5 9KBTU/HR 10.6EER\" - Low condenser dry-bulb temperature error continues...\n   *************  **   ~~~   **   This error occurred 1053 total times;\n   *************  **   ~~~   **   during Warmup 0 times;\n   *************  **   ~~~   **   during Sizing 0 times.\n   *************  **   ~~~   **   Max=-2.500000E-002 [C]  Min=-21. [C]\n   *************\n   *************  ** Warning ** CalcDoe2DXCoil: Coil:Cooling:DX:SingleSpeed=\"COIL COOLING DX SINGLE SPEED 15 10KBTU/HR 10.4EER\" - Low condenser dry-bulb temperature error continues...\n   *************  **   ~~~   **   This error occurred 102 total times;\n   *************  **   ~~~   **   during Warmup 0 times;\n   *************  **   ~~~   **   during Sizing 0 times.\n   *************  **   ~~~   **   Max=-0.1 [C]  Min=-12.3 [C]\n   *************\n   *************  ** Warning ** CalcDoe2DXCoil: Coil:Cooling:DX:SingleSpeed=\"COIL COOLING DX SINGLE SPEED 11 10KBTU/HR 10.3EER\" - Low condenser dry-bulb temperature error continues...\n   *************  **   ~~~   **   This error occurred 134 total times;\n   *************  **   ~~~   **   during Warmup 0 times;\n   *************  **   ~~~   **   during Sizing 0 times.\n   *************  **   ~~~   **   Max=-5.000000E-002 [C]  Min=-12.475 [C]\n   *************\n   *************  ** Warning ** CalcDoe2DXCoil: Coil:Cooling:DX:SingleSpeed=\"COIL COOLING DX SINGLE SPEED 23 10KBTU/HR 10.5EER\" - Low condenser dry-bulb temperature error continues...\n   *************  **   ~~~   **   This error occurred 733 total times;\n   *************  **   ~~~   **   during Warmup 0 times;\n   *************  **   ~~~   **   during Sizing 0 times.\n   *************  **   ~~~   **   Max=-5.551115E-017 [C]  Min=-20.1 [C]\n   *************\n   *************  ** Warning ** CalcDoe2DXCoil: Coil:Cooling:DX:SingleSpeed=\"COIL COOLING DX SINGLE SPEED 2 10KBTU/HR 10.4EER\" - Low condenser dry-bulb temperature error continues...\n   *************  **   ~~~   **   This error occurred 942 total times;\n   *************  **   ~~~   **   during Warmup 0 times;\n   *************  **   ~~~   **   during Sizing 0 times.\n   *************  **   ~~~   **   Max=-5.551115E-017 [C]  Min=-19.45 [C]\n   *************\n   *************  ** Warning ** CalcDoe2DXCoil: Coil:Cooling:DX:SingleSpeed=\"COIL COOLING DX SINGLE SPEED 4 5KBTU/HR 11.0EER\" - Low condenser dry-bulb temperature error continues...\n   *************  **   ~~~   **   This error occurred 1003 total times;\n   *************  **   ~~~   **   during Warmup 0 times;\n   *************  **   ~~~   **   during Sizing 0 times.\n   *************  **   ~~~   **   Max=-2.500000E-002 [C]  Min=-16.9 [C]\n   *************\n   *************  ** Warning ** CalcDoe2DXCoil: Coil:Cooling:DX:SingleSpeed=\"COIL COOLING DX SINGLE SPEED 4 5KBTU/HR 11.0EER\" - Full load outlet temperature indicates a possibility of frost/freeze error continues. Outlet air temperature statistics follow:\n   *************  **   ~~~   **   This error occurred 395 total times;\n   *************  **   ~~~   **   during Warmup 0 times;\n   *************  **   ~~~   **   during Sizing 0 times.\n   *************  **   ~~~   **   Max=1.996561  Min=-2.746069\n   *************\n   *************  ** Warning ** CalcDoe2DXCoil: Coil:Cooling:DX:SingleSpeed=\"COIL COOLING DX SINGLE SPEED 3 5KBTU/HR 11.0EER\" - Low condenser dry-bulb temperature error continues...\n   *************  **   ~~~   **   This error occurred 1034 total times;\n   *************  **   ~~~   **   during Warmup 0 times;\n   *************  **   ~~~   **   during Sizing 0 times.\n   *************  **   ~~~   **   Max=-2.500000E-002 [C]  Min=-16.5 [C]\n   *************\n   *************  ** Warning ** CalcDoe2DXCoil: Coil:Cooling:DX:SingleSpeed=\"COIL COOLING DX SINGLE SPEED 3 5KBTU/HR 11.0EER\" - Full load outlet temperature indicates a possibility of frost/freeze error continues. Outlet air temperature statistics follow:\n   *************  **   ~~~   **   This error occurred 384 total times;\n   *************  **   ~~~   **   during Warmup 0 times;\n   *************  **   ~~~   **   during Sizing 0 times.\n   *************  **   ~~~   **   Max=1.996834  Min=-2.504461\n   *************\n   *************  ** Warning ** CalcDoe2DXCoil: Coil:Cooling:DX:SingleSpeed=\"COIL COOLING DX SINGLE SPEED 14 10KBTU/HR 10.3EER\" - Low condenser dry-bulb temperature error continues...\n   *************  **   ~~~   **   This error occurred 112 total times;\n   *************  **   ~~~   **   during Warmup 0 times;\n   *************  **   ~~~   **   during Sizing 0 times.\n   *************  **   ~~~   **   Max=-0.15 [C]  Min=-15.55 [C]\n   *************\n   *************  ** Warning ** CalcDoe2DXCoil: Coil:Cooling:DX:SingleSpeed=\"COIL COOLING DX SINGLE SPEED 21 4KBTU/HR 11.0EER\" - Low condenser dry-bulb temperature error continues...\n   *************  **   ~~~   **   This error occurred 514 total times;\n   *************  **   ~~~   **   during Warmup 0 times;\n   *************  **   ~~~   **   during Sizing 0 times.\n   *************  **   ~~~   **   Max=-2.500000E-002 [C]  Min=-12.65 [C]\n   *************\n   *************  ** Warning ** CalcDoe2DXCoil: Coil:Cooling:DX:SingleSpeed=\"COIL COOLING DX SI
[...]
GbJgXlH5GgTZOC8sMvaNOkoPzwC9o0KSg//Io2TUuydbuy2RRtmpZkq3dluSnaNC3J1vDKflO0adpdaet4ZcUp2jQtydbxypZDm4Y2DW3aEyHatNugTUObhjatMmjT0KY1vSu0abPnN7webdrjoE2bZoVvaW3MLgAOOOCAAw444IADDjjggDM8zsakA9BAAw000EADDTTQQAMNNOPQvI3sABxwwAEHHHDAAQcccMABp/95aNPugzZt0qbFGNq0/QDatP3LtGm7j2Kxpik5e1POwZRzNOWcTDlnU87FlHM15cx+dC8FuRodrkqHq9PhKnW4Wh2uWoer1+EqdriaXVzNLra72tXs4mp2aWr2cj3aLKrfjibEpJ9QvxtNiEnPfb8ZTYhJz3y/F02ISc+7YEVTckw9zteYoERTckxVzneY4ENTckxtzheYIENT7kFTn/PtJZjQlBxTn/PV1a9Bm8UIFjQlJ/14BAeakpMed8GApuSkx13wnyk56XFX7GdSkKvR+QZT1GdSkKvU+RJTvGdSkKvX+R5TpGfSzehqdr7KFOOZFORqdr7N0J2hO0N39kSI7uw26M7QnaE7qwy6M3RnTe8K3dns+Q2vR3f2OOjOplnh21UbswKAAw444IADDjjggAMOOOAMj7MxWQA00EADDTTQQAMNNNBAA804NG8jKQAHHHDAAQcccMABBxxwwOl/Hrqz+6A7m3RnZQzd2WEA3dnhhbqz3dHkOxOC9q6ggyvo6Ao6uYLOrqCLK+jqCvr0c3slydbtsJU7bO0OW73D1u+wFTxsDQ9bxcPW8WLrePHd37aOF1vHS1vHWzRoj1mKB60/J/+UFBNaf05+CygutP6c/AZQbGj9Ofnpl3xoQpCr0ZX1JinRhCBXqSu7TbKiCUGuXlcWmyRGE25GV7MrW01yowlBrmZXVpqiR3vMkfxoQlD+EUmGNCEoP/ySI00Iyg+/ZEkTgvLDr3nSlCRbtyubTVOlKUm2eleWm2ZLU5JsDa/sN02YptyVto5XVpzmTFOSbB2vbDm0aWjT0KY9EaJNuw3aNLRpaNMqgzYNbVrTu0KbNnt+w+vRpj0O2rRpVviW1sbsAuCAAw444IADDjjggAMOOMPjbEw6AA000EADDTTQQAMNNNBAMw7N28gOwAEHHHDAAQcccMABBxxw+p+HNu0+aNMmbdp+DG3acQBt2vFl2rTT1x+F9ipuXEF7V9DBFXR0BZ1cQWdX0MUVdHUFzX59ryXZuh22coet3WGrd9j6HbaCh63hYat42DpebB0vvvvb1vFi63hp6/hybdo8q1+bpuTkn1K/Nk3JyW+Bfm2akpPfAP3aNCUnP/2CNk0KcjW6st4EbZoU5Cp1ZbcJ2jQpyNXrymITtGnSzehqdmWrCdo0KcjV7MpK69emzXMEbZoUlH9EgjZNCsoPv6BNk4Lywy9o06Sg/PAr2jQtydbtymZTtGlakq3eleWmaNO0JFvDK/tN0aZpd6Wt45UVp2jTtCRbxytbDm0a2jS0aU+EaNNugzYNbRratMqgTUOb1vSu0KbNnt/werRpj4M2bZoVvqW1MbsAOOCAAw444IADDjjggAPO8Dgbkw5AAw000EADDTTQQAMNNNCMQ/M2sgNwwAEHHHDAAQcccMABB5z+56FNuw/atEmbdhhDm3YaQJt2epk2bfdRLNY0JWdvyjmYco6mnJMp52zKuZhyrqac2Y/upSBXo8NV6XB1OlylDlerw1XrcPU6XMUOV7OLq9nFdle7ml1czS5NzV6uR5tF9dvRhJj0E+p3owkx6bnvN6MJMemZ7/eiCTHpeResaEqOqcf5GhOUaEqOqcr5DhN8aEqOqc35AhNkaMo9aOpzvr0EE5qSY+pzvrr6NWizGMGCpuSkH4/gQFNy0uMuGNCUnPS4C/4zJSc97or9TApyNTrfYIr6TApylTpfYor3TApy9TrfY4r0TLoZXc3OV5liPJOCXM3Otxm6M3Rn6M6eCNGd3QbdGbozdGeVQXeG7qzpXaE7mz2/4fXozh4H3dk0K3y7amNWAHDAAQcccMABBxxwwAEHnOFxNiYLgAYaaKCBBhpooIEGGmigGYfmbSQF4IADDjjggAMOOOCAAw44/c9Dd3YfdGeT7uw4hu7sPIDu7PxC3dnuaPKdCUF7V9DBFXR0BZ1cQWdX0MUVdHUFffq5vZJk63bYyh22doet3mHrd9gKHraGh63iYet4sXW8+O5vW8eLreOlreMtGrTHLMWD1p+Tf0qKCa0/J78FFBdaf05+Ayg2tP6c/PRLPjQhyNXoynqTlGhCkKvUld0mWdGEIFevK4tNEqMJN6Or2ZWtJrnRhCBXsysrTdGjPeZIfjQhKP+IJEOaEJQffsmRJgTlh1+ypAlB+eHXPGlKkq3blc2mqdKUJFu9K8tNs6UpSbaGV/abJkxT7kpbxysrTnOmKUm2jle2HNo0tGlo054I0abdBm0a2jS0aZVBm4Y2reldoU2bPb/h9WjTHgdt2jQrfEtrY3YBcMABBxxwwAEHHHDAAQec4XE2Jh2ABhpooIEGGmiggQYaaKAZh+ZtZAfggAMOOOCAAw444IADDjj9z0Obdh+0aZM27TSGNu0ygDbt8jJt2unrj0J7FTeuoL0r6OAKOrqCTq6gsyvo4gq6uoJmv77XkmzdDlu5w9busNU7bP0OW8HD1vCwVTxsHS+2jhff/W3reLF1vLR1fLk2bZ7Vr01TcvJPqV+bpuTkt0C/Nk3JyW+Afm2akpOffkGbJgW5Gl1Zb4I2TQpylbqy2wRtmhTk6nVlsQnaNOlmdDW7stUEbZoU5Gp2ZaX1a9PmOYI2TQrKPyJBmyYF5Ydf0KZJQfnhF7RpUlB++BVtmpZk63ZlsynaNC3JVu/KclO0aVqSreGV/aZo07S70tbxyopTtGlakq3jlS2HNg1tGtq0J0K0abdBm4Y2DW1aZdCmoU1reldo02bPb3g92rTHQZs2zQrf0tqYXQAccMABBxxwwAEHHHDAAWd4nI1JB6CBBhpooIEGGmiggQYaaMaheRvZATjggAMOOOCAAw444IADTv/z0KbdB23apE07j6FNuw6gTbu+TJu2+ygWa5qSszflHEw5R1POyZRzNuVcTDlXU87sR/dSkKvR4ap0uDodrlKHq9XhqnW4eh2uYoer2cXV7GK7q13NLq5ml6ZmL9ejzaL67WhCTPoJ9bvRhJj03Peb0YSY9Mz3e9GEmPS8C1Y0JcfU43yNCUo0JcdU5XyHCT40JcfU5nyBCTI05R409TnfXoIJTckx9TlfXf0atFmMYEFTctKPR3CgKTnpcRcMaEpOetwF/5mSkx53xX4mBbkanW8wRX0mBblKnS8xxXsmBbl6ne8xRXom3YyuZuerTDGeSUGuZufbDN0ZujN0Z0+E6M5ug+4M3Rm6s8qgO0N31vSu0J3Nnt/wenRnj4PubJoVvl21MSsAOOCAAw444IADDjjggAPO8DgbkwVAAw000EADDTTQQAMNNNCMQ/M2kgJwwAEHHHDAAQcccMABB5z+56E7uw+6s0l3dhlCd3bebV939gvj63Rnu6PJdyYE7V1BB1fQ0RV0cgWdXUEXV9DVFfTp5/ZKkq3bYSt32NodtnqHrd9hK3jYGh62ioet48XW8eK7v20dL7aOl7aOt2jQHrMUD1p/Tv4pKSa0/pz8FlBcaP05+Q2g2ND6c/LTL/nQhCBXoyvrTVKiCUGuUld2m2RFE4Jcva4sNkmMJtyMrmZXtprkRhOCXM2urDRFj/aYI/nRhKD8I5IMaUJQfvglR5oQlB9+yZImBOWHX/OkKUm2blc2m6ZKU5Js9a4sN82WpiTZGl7Zb5owTbkrbR2vrDjNmaYk2Tpe2XJo09CmoU17IkSbdhu0aWjT0KZVBm0a2rSmd4U2bfb8htejTXsctGnTrPAtrY3ZBcABBxxwwAEHHHDAAQcccIbH2Zh0ABpooIEGGmiggQYaaKCBZhyat5EdgAMOOOCAAw444IADDjjg9D8Pbdp90KZN2rTrGNq0GECbFi/Tpp2+/ii0V3HjCtq7gg6uoKMr6OQKOruCLq6gqyto9ut7LcnW7bCVO2ztDlu9w9bvsBU8bA0PW8XD1vFi63jx3d+2jhdbx0tbx5dr0+ZZ/do0JSf/lPq1aUpOfgv0a9OUnPwG6NemKTn56Re0aVKQq9GV9SZo06QgV6kru03QpklBrl5XFpugTZNuRlezK1tN0KZJQa5mV1ZavzZtniNo06Sg/CMStGlSUH74BW2aFJQffkGbJgXlh1/RpmlJtm5XNpuiTdOSbPWuLDdFm6Yl2Rpe2W+KNk27K20dr6w4RZumJdk6XtlyaNPQpqFNeyJEm3YbtGlo09CmVQZtGtq0pneFNm32/IbXo017HLRp06zwLa2N2QXAAQcccMABBxxwwAEHHHCGx9mYdAAaaKCBBhpooIEGGmiggWYcmreRHYADDjjggAMOOOCAAw444PQ/D23afdCmfdOmHcewppUBrGkFa1pfENa07wdhTVuUhDUNaxrWNKxpWNOwpmFNw5qGNe1Xb0asad8Pwpr23SCsaVjTsKZhTbMlYU1bloQ1LYfBmoY17fNgTfuGjzXt82BNWzJY09pejzUNa1rTu8KaNnt+w+uxpj0O1rRpVviS1sbkAuCAAw444IADDjjggAMOOMPjbMw5AA000EADDTTQQAMNNNBAMw7N27gOwAEHHHDAAQcccMABBxxw+p+HNe0+WNMma9puDG3afgBt2v5l2rTdR7FY05ScvSnnYMo5mnJOppyzKediyrmacmY/upeCXI0OV6XD1elwlTpcrQ5XrcPV63AVO1zNLq5mF9td7Wp2cTW7NDV7uR5tFtVvRxNi0k+o340mxKTnvt+MJsSkZ77fiybEpOddsKIpOaYe52tMUKIpOaYq5ztM8KEpOaY25wtMkKEp96Cpz/n2EkxoSo6pz/nq6tegzWIEC5qSk348ggNNyUmPu2BAU3LS4y74z5Sc9Lgr9jMpyNXofIMp6jMpyFXqfIkp3jMpyNXrfI8p0jPpZnQ1O19livFMCnI1O99m6M7QnaE7eyJEd3YbdGfoztCdVQbdGbqzpneF7mz2/IbXozt7HHRn06zw7aqNWQHAAQcccMABBxxwwAEHHHCGx9mYLAAaaKCBBhpooIEGGmiggWYcmreRFIADDjjggAMOOOCAAw444PQ/D93ZfdCdTbqzGEN3dhhAd3Z4oe5sdzT5zoSgvSvo4Ao6uoJOrqCzK+jiCrq6gj793F5JsnU7bOUOW7vDVu+w9TtsBQ9bw8NW8bB1vNg6Xnz3t63jxdbx0tbxFg3aY5biQevPyT8lxYTWn5PfAooLrT8nvwEUG1p/Tn76JR+aEORqdGW9SUo0IchV6spuk6xoQpCr15XFJonRhJvR1ezKVpPcaEKQq9mVlabo0R5zJD+aEJR/RJIhTQjKD7/kSBOC8sMvWdKEoPzwa540JcnW7cpm01RpSpKt3pXlptnSlCRbwyv7TROmKXelreOVFac505QkW8crWw5tGto0tGlPhGjTboM2DW0a2rTKoE1Dm9b0rtCmzZ7f8Hq0aY+DNm2aFb6ltTG7ADjggAMOOOCAAw444IADzvA4G5MOQAMNNNBAAw000EADDTTQjEPzNrIDcMABBxxwwAEHHHDAAQec/uehTbsP2rRJm1bG0KYdB9CmHV+mTTt9/VFor+LGFbR3BR1cQUdX0MkVdHYFXVxBV1fQ7Nf3WpKt22Erd9jaHbZ6h63fYSt42BoetoqHrePF1vHiu79tHS+2jpe2ji/Xps2z+rVpSk7+KfVr05Sc/Bbo16YpOfkN0K9NU3Ly0y9o06QgV6Mr603QpklBrlJXdpugTZOCXL2uLDZBmybdjK5mV7aaoE2TglzNrqy0fm3aPEfQpklB+UckaNOkoPzwC9o0KSg//II2TQrKD7+iTdOSbN2ubDZFm6Yl2epdWW6KNk1LsjW8st8UbZp2V9o6XllxijZNS7J1vLLl0KahTUOb9kSINu02aNPQpqFNqwzaNLRpTe8Kbdrs+Q2vR5v2OGjTplnhW1obswuAAw444IADDjjggAMOOOAMj7Mx6QA00EADDTTQQAMNNNBAA804NG8jOwAHHHDAAQcccMABBxxwwOl/Htq0+6BNm7Rp+zG0aacBtGmnl2nTdh/FYk1TcvamnIMp52jKOZlyzqaciynnasqZ/eheCnI1OlyVDlenw1XqcLU6XLUOV6/DVexwNbu4ml1sd7Wr2cXV7NLU7OV6tFlUvx1NiEk/oX43mhCTnvt+M5oQk575fi+aEJOed8GKpuSYepyvMUGJpuSYqpzvMMGHpuSY2pwvMEGGptyDpj7n20swoSk5pj7nq6tfgzaLESxoSk768QgONCUnPe6CAU3JSY+74D9TctLjrtjPpCBXo/MNpqjPpCBXqfMlpnjPpCBXr/M9pkjPpJvR1ex8lSnGMynI1ex8m6E7Q3eG7uyJEN3ZbdCdoTtDd1YZdGfozpreFbqz2fMbXo/u7HHQnU2zwrerNmYFAAcccMABBxxwwAEHHHDAGR5nY7IAaKCBBhpooIEGGmiggQaacWjeRlIADjjggAMOOOCAAw444IDT/zx0Z/dBdzbpzg5j6M7OA+jOzi/Une2OJt+ZELR3BR1cQUdX0MkVdHYFXVxBV1fQp5/bK0m2boet3GFrd9jqHbZ+h63gYWt42Coeto4XW8eL7/62dbzYOl7aOt6iQXvMUjxo/Tn5p6SY0Ppz8ltAcaH15+Q3gGJD68/JT7/kQxOCXI2urDdJiSYEuUpd2W2SFU0IcvW6stgkMZpwM7qaXdlqkhtNCHI1u7LSFD3aY47kRxOC8o9IMqQJQfnhlxxpQlB++CVLmhCUH37Nk6Yk2bpd2WyaKk1JstW7stw0W5qSZGt4Zb9pwjTlrrR1vLLiNGeakmTreGXLoU1Dm4Y27YkQbdpt0KahTUObVhm0aWjTmt4V2rTZ8xtejzbtcdCmTbPCt7Q2ZhcABxxwwAEHHHDAAQcccMAZHmdj0gFooIEGGmiggQYaaKCBBppxaN5GdgAOOOCAAw444IADDjjggNP/PLRp90GbNmnTjmNo0y4DaNMuL9Omnb7+KLRXceMK2ruCDq6goyvo5Ao6u4IurqCrK2j263stydbtsJU7bO0OW73D1u+wFTxsDQ9bxcPW8WLrePHd37aOF1vHS1vHl2vT5ln92jQlJ/+U+rVpSk5+C/Rr05Sc/Abo16YpOfnpF7RpUpCr0ZX1JmjTpCBXqSu7TdCmSUGuXlcWm6BNk25GV7MrW03QpklBrmZXVlq/Nm2eI2jTpKD8IxK0aVJQfvgFbZoUlB9+QZsmBeWHX9GmaUm2blc2m6JN05Js9a4sN0WbpiXZGl7Zb4o2TbsrbR2vrDhFm6Yl2Tpe2XJo09CmoU17IkSbdhu0aWjT0KZVBm0a2rSmd4U2bfb8htejTXsctGnTrPAtrY3ZBcABBxxwwAEHHHDAAQcccIbH2Zh0ABpooIEGGmiggQYaaKCBZhyat5EdgAMOOOCAAw444IADDjjg9D8Pbdp90KZN2rTTGNq06wDatOvLtGm7j2Kxpik5e1POwZRzNOWcTDlnU87FlHM15cx+dC8FuRodrkqHq9PhKnW4Wh2uWoer1+EqdriaXVzNLra72tXs4mp2aWr2cj3aLKrfjibEpJ9QvxtNiEnPfb8ZTYhJz3y/F02ISc+7YEVTckw9zteYoERTckxVzneY4ENTckxtzheYIENT7kFTn/PtJZjQlBxTn/PV1a9Bm8UIFjQlJ/14BAeakpMed8GApuSkx13wnyk56XFX7GdSkKvR+QZT1GdSkKvU+RJTvGdSkKvX+R5TpGfSzehqdr7KFOOZFORqdr7N0J2hO0N39kSI7uw26M7QnaE7qwy6M3RnTe8K3dns+Q2vR3f2OOjOplnh21UbswKAAw444IADDjjggAMOOOAMj7MxWQA00EADDTTQQAMNNNBAA804NG8jKQAHHHDAAQcccMABBxxwwOl/Hrqz+6A7m3Rn5yF0Z5fd9nVnvzC+Tne2O5p8Z0LQ3hV0cAUdXUEnV9DZFXRxBV1dQZ9+bq8k2bodtnKHrd1hq3fY+h22goet4WGreNg6XmwdL77729bxYut4aet4iwbtMUvxoPXn5J+SYkLrz8lvAcWF1p+T3wCKDa0/Jz/9kg9NCHI1urLeJCWaEOQqdWW3SVY0IcjV68pik8Rows3oanZlq0luNCHI1ezKSlP0aI85kh9NCMo/IsmQJgTlh19ypAlB+eGXLGlCUH74NU+akmTrdmWzaao0JclW78py02xpSpKt4ZX9pgnTlLvS1vHKitOcaUqSreOVLYc2DW0a2rQnQrRpt0GbhjYNbVpl0KahTWt6V2jTZs9veD3atMdBmzbNCt/S2phdABxwwAEHHHDAAQcccMABZ3icjUkHoIEGGmiggQYaaKCBBhpoxqF5G9kBOOCAAw444IADDjjggANO//PQpt0HbdqkTbuMoU2LAbRp8TJt2unrj0J7FTeuoL0r6OAKOrqCTq6gsyvo4gq6uoJmv77XkmzdDlu5w9busNU7bP0OW8HD1vCwVTxsHS+2jhff/W3reLF1vLR1fLk2bZ7Vr01TcvJPqV+bpuTkt0C/Nk3JyW+Afm2akpOffkGbJgW5Gl1Zb4I2TQpylbqy2wRtmhTk6nVlsQnaNOlmdDW7stUEbZoU5Gp2ZaX1a9PmOYI2TQrKPyJBmyYF5Ydf0KZJQfnhF7RpUlB++BVtmpZk63ZlsynaNC3JVu/KclO0aVqSreGV/aZo07S70tbxyopTtGlakq3jlS2HNg1tGtq0J0K0abdBm4Y2DW1aZdCmoU1reldo02bPb3g92rTHQZs2zQrf0tqYXQAccMABBxxwwAEHHHDAAWd4nI1JB6CBBhpooIEGGmiggQYaaMaheRvZATjggAMOOOCAAw444IADTv/z0KbdB23apE27jqFNKwNo08rLtGm7j2Kxpik5e1POwZRzNOWcTDlnU87FlHM15cx+dC8FuRodrkqHq9PhKnW4Wh2uWoer1+EqdriaXVzNLra72tXs4mp2aWr2cj3aLKrfjibEpJ9QvxtNiEnPfb8ZTYhJz3y/F02ISc+7YEVTckw9zteYoERTckxVzneY4ENTckxtzheYIENT7kFTn/PtJZjQlBxTn/PV1a9Bm8UIFjQlJ/14BAeakpMed8GApuSkx13wnyk56XFX7GdSkKvR+QZT1GdSkKvU+RJTvGdSkKvX+R5TpGfSzehqdr7KFOOZFORqdr7N0J2hO0N39kSI7uw26M7QnaE7qwy6M3RnTe8K3dns+Q2vR3f2OOjOplnh21UbswKAAw444IADDjjggAMOOOAMj7MxWQA00EADDTTQQAMNNNBAA804NG8jKQAHHHDAAQcccMABBxxwwOl/Hrqz+6A7+6Y7O41hO9sPYDvbYzvDdvb9H9ljO8N2hu0M29mSIGxn2M6wnWE7w3aG7QzbGbazpsWF7Qzb2aIgbGffD8J29v0gbGffD8J2lsFgO8N29nmwnX3Dx3b2ebCdLRlsZ22vx3aG7azpXWE7mz2/4fXYzh4H29k0K3y5amNSAHDAAQcccMABBxxwwAEHnOFxNuYKgAYaaKCBBhpooIEGGmigGYfmbRwF4IADDjjggAMOOOCAAw44/c/DdnYfbGeT7Ww3hu7sMIDu7PBC3dnuaPKdCUF7V9DBFXR0BZ1cQWdX0MUVdHUFffq5vZJk63bYyh22doet3mHrd9gKHraGh63iYet4sXW8+O5vW8eLreOlreMtGrTHLMWD1p+Tf0qKCa0/J78FFBdaf05+Ayg2tP6c/PRLPjQhyNXoynqTlGhCkKvUld0mWdGEIFevK4tNEqMJN6Or2ZWtJrnRhCBXsysrTdGjPeZIfjQhKP+IJEOaEJQffsmRJgTlh1+ypAlB+eHXPGlKkq3blc2mqdKUJFu9K8tNs6UpSbaGV/abJkxT7kpbxysrTnOmKUm2jle2HNo0tGlo054I0abdBm0a2jS0aZVBm4Y2reldoU2bPb/h9WjTHgdt2jQrfEtrY3YBcMABBxxwwAEHHHDAAQec4XE2Jh2ABhpooIEGGmiggQYaaKAZh+ZtZAfggAMOOOCAAw444IADDjj9z0Obdh+0aZM2LcbQph0H0KYdX6ZNO339UWiv4sYVtHcFHVxBR1fQyRV0dgVdXEFXV9Ds1/dakq3bYSt32NodtnqHrd9hK3jYGh62ioet48XW8eK7v20dL7aOl7aOL9emzbP6tWlKTv4p9WvTlJz8FujXpik5+Q3Qr01TcvLTL2jTpCBXoyvrTdCmSUGuUld2m6BNk4Jcva4sNkGbJt2MrmZXtpqgTZOCXM2urLR+bdo8R9CmSUH5RyRo06Sg/PAL2jQpKD/8gjZNCsoPv6JN05Js3a5sNkWbpiXZ6l1Zboo2TUuyNbyy3xRtmnZX2jpeWXGKNk1LsnW8suXQpqFNQ5v2RIg27TZo09CmoU2rDNo0tGlN7wpt2uz5Da9Hm/Y4aNOmWeFbWhuzC4ADDjjggAMOOOCAAw444AyPszHpADTQQAMNNNBAAw000EADzTg0byM7AAcccMABBxxwwAEHHHDA6X8e2rT7oE2btGllDG3aaQBt2ull2rTdR7FY05ScvSnnYMo5mnJOppyzKediyrmacmY/upeCXI0OV6XD1elwlTpcrQ5XrcPV63AVO1zNLq5mF9td7Wp2cTW7NDV7uR5tFtVvRxNi0k+o340mxKTnvt+MJsSkZ77fiybEpOddsKIpOaYe52tMUKIpOaYq5ztM8KEpOaY25wtMkKEp96Cpz/n2EkxoSo6pz/nq6tegzWIEC5qSk348ggNNyUmPu2BAU3LS4y74z5Sc9Lgr9jMpyNXofIMp6jMpyFXqfIkp3jMpyNXrfI8p0jPpZnQ1O19livFMCnI1O99m6M7QnaE7eyJEd3YbdGfoztCdVQbdGbqzpneF7mz2/IbXozt7HHRn06zw7aqNWQHAAQcccMABBxxwwAEHHHCGx9mYLAAaaKCBBhpooIEGGmiggWYcmreRFIADDjjggAMOOOCAAw444PQ/D93ZfdCdTbqz/Ri6s/MAurPzC3Vnu6PJdyYE7V1BB1fQ0RV0cgWdXUEXV9DVFfTp5/ZKkq3bYSt32NodtnqHrd9hK3jYGh62ioet48XW8eK7v20dL7aOl7aOt2jQHrMUD1p/Tv4pKSa0/pz8FlBcaP05+Q2g2ND6c/LTL/nQhCBXoyvrTVKiCUGuUld2m2RFE4Jcva4sNkmMJtyMrmZXtprkRhOCXM2urDRFj/aYI/nRhKD8I5IMaUJQfvglR5oQlB9+yZImBOWHX/OkKUm2blc2m6ZKU5Js9a4sN82WpiTZGl7Zb5owTbkrbR2vrDjNmaYk2Tpe2XJo09CmoU17IkSbdhu0aWjT0KZVBm0a2rSmd4U2bfb8htejTXsctGnTrPAtrY3ZBcABBxxwwAEHHHDAAQcccIbH2Zh0ABpooIEGGmiggQYaaKCBZhyat5EdgAMOOOCAAw444IADDjjg9D8Pbdp90KZN2rTDGNq0ywDatMvLtGmnrz8K7VXcuIL2rqCDK+joCjq5gs6uoIsr6OoKmv36XkuydTts5Q5bu8NW77D1O2wFD1vDw1bxsHW82DpefPe3rePF1vHS1vHl2rR5Vr82TcnJP6V+bZqSk98C/do0JSe/Afq1aUpOfvoFbZoU5Gp0Zb0J2jQpyFXqym4TtGlSkKvXlcUmaNOkm9HV7MpWE7RpUpCr2ZWV1q9Nm+cI2jQpKP+IBG2aFJQffkGbJgXlh1/QpklB+eFXtGlakq3blc2maNO0JFu9K8tN0aZpSbaGV/abok3T7kpbxysrTtGmaUm2jle2HNo0tGlo054I0abdBm0a2jS0aZVBm4Y2reldoU2bPb/h9WjTHgdt2jQrfEtrY3YBcMABBxxwwAEHHHDAAQec4XE2Jh2ABhpooIEGGmiggQYaaKAZh+ZtZAfggAMOOOCAAw444IADDjj9z0Obdh+0aZM27TiGNu06gDbt+jJt2u6jWKxpSs7elHMw5RxNOSdTztmUczHlXE05sx/dS0GuRoer0uHqdLhKHa5Wh6vW4ep1uIodrmYXV7OL7a52Nbu4ml2amr1cjzaL6rejCTHpJ9TvRhNi0nPfb0YTYtIz3+9FE2LS8y5Y0ZQcU4/zNSYo0ZQcU5XzHSb40JQcU5vzBSbI0JR70NTnfHsJJjQlx9TnfHX1a9BmMYIFTclJPx7BgabkpMddMKApOelxF/xnSk563BX7mRTkanS+wRT1mRTkKnW+xBTvmRTk6nW+xxTpmXQzupqdrzLFeCYFuZqdbzN0Z+jO0J09EaI7uw26M3Rn6M4qg+4M3VnTu0J3Nnt+w+vRnT0OurNpVvh21casAOCAAw444IADDjjggAMOOMPjbEwWAA000EADDTTQQAMNNNBAMw7N20gKwAEHHHDAAQcccMABBxxw+p+H7uw+6M4m3dlpCN3Zdbd93dkvjK/Tne2OJt+ZELR3BR1cQUdX0MkVdHYFXVxBV1fQp5/bK0m2boet3GFrd9jqHbZ+h63gYWt42Coeto4XW8eL7/62dbzYOl7aOt6iQXvMUjxo/Tn5p6SY0Ppz8ltAcaH15+Q3gGJD68/JT7/kQxOCXI2urDdJiSYEuUpd2W2SFU0IcvW6stgkMZpwM7qaXdlqkhtNCHI1u7LSFD3aY47kRxOC8o9IMqQJQfnhlxxpQlB++CVLmhCUH37Nk6Yk2bpd2WyaKk1JstW7stw0W5qSZGt4Zb9pwjTlrrR1vLLiNGeakmTreGXLoU1Dm4Y27YkQbdpt0KahTUObVhm0aWjTmt4V2rTZ8xtejzbtcdCmTbPCt7Q2ZhcABxxwwAEHHHDAAQcccMAZHmdj0gFooIEGGmiggQYaaKCBBppxaN5GdgAOOOCAAw444IADDjjggNP/PLRp90GbNmnTzmNo02IAbVq8TJt2+vqj0F7FjSto7wo6uIKOrqCTK+jsCrq4gq6uoNmv77UkW7fDVu6wtTts9Q5bv8NW8LA1PGwVD1vHi63jxXd/2zpebB0vbR1frk2bZ/Vr05Sc/FPq16YpOfkt0K9NU3LyG6Bfm6bk5Kdf0KZJQa5GV9aboE2Tglylruw2QZsmBbl6XVlsgjZNuhldza5sNUGbJgW5ml1Zaf3atHmOoE2TgvKPSNCmSUH54Re0aVJQfvgFbZoUlB9+RZumJdm6XdlsijZNS7LVu7LcFG2almRreGW/Kdo07a60dbyy4hRtmpZk63hly6FNQ5uGNu2JEG3abdCmoU1Dm1YZtGlo05reFdq02fMbXo827XHQpk2zwre0NmYXAAcccMABBxxwwAEHHHDAGR5nY9IBaKCBBhpooIEGGmiggQaacWjeRnYADjjggAMOOOCAAw444IDT/zy0afdBmzZp0y5jaNPKANq08jJt2u6jWKxpSs7elHMw5RxNOSdTztmUczHlXE05sx/dS0GuRoer0uHqdLhKHa5Wh6vW4ep1uIodrmYXV7OL7a52Nbu4ml2amr1cjzaL6rejCTHpJ9TvRhNi0nPfb0YTYtIz3+9FE2LS8y5Y0ZQcU4/zNSYo0ZQcU5XzHSb40JQcU5vzBSbI0JR70NTnfHsJJjQlx9TnfHX1a9BmMYIFTclJPx7BgabkpMddMKApOelxF/xnSk563BX7mRTkanS+wRT1mRTkKnW+xBTvmRTk6nW+xxTpmXQzupqdrzLFeCYFuZqdbzN0Z+jO0J09EaI7uw26M3Rn6M4qg+4M3VnTu0J3Nnt+w+vRnT0OurNpVvh21casAOCAAw444IADDjjggAMOOMPjbEwWAA000EADDTTQQAMNNNBAMw7N20gKwAEHHHDAAQcccMABBxxw+p+H7uw+6M4m3dl1DN3ZfgDd2f6FurPd0eQ7E4L2rqCDK+joCjq5gs6uoIsr6OoK+vRzeyXJ1u2wlTts7Q5bvcPW77AVPGwND1vFw9bxYut48d3fto4XW8dLW8dbNGiPWYoHrT8n/5QUE1p/Tn4LKC60/pz8BlBsaP05+emXfGhCkKvRlfUmKdGEIFepK7tNsqIJQa5eVxabJEYTbkZXsytbTXKjCUGuZldWmqJHe8yR/GhCUP4RSYY0ISg//JIjTQjKD79kSROC8sOvedKUJFu3K5tNU6UpSbZ6V5abZktTkmwNr+w3TZim3JW2jldWnOZMU5JsHa9sObRpaNPQpj0Rok27Ddo0tGlo0yqDNg1tWtO7Qps2e37D69GmPQ7atGlW+JbWxuwC4IADDjjggAMOOOCAAw44w+NsTDoADTTQQAMNNNBAAw000EAzDs3byA7AAQcccMABBxxwwAEHHHD6n4c27T5o075p085jWNMOA1jTDljT+oKwpn0/CGvaoiSsaVjTsKZhTcOahjUNaxrWNKxpv3ozYk37fhDWtO8GYU3DmoY1DWsa1rRFSVjTaoM17ddnyf8+jTWtHo017Rs+1rTPgzVtyWBNa3s91jSsaU3vCmva7PkNr8ea9jhY06ZZ4UtaG5MLgAMOOOCAAw444IADDjjgDI+zMecANNBAAw000EADDTTQQAPNODRv4zoABxxwwAEHHHDAAQcccMDpfx7WtPtgTZusabsxtGnHAbRpx5dp005ffxTaq7hxBe1dQQdX0NEVdHIFnV1BF1fQ1RU0+/W9lmTrdtjKHbZ2h63eYet32AoetoaHreJh63ixdbz47m9bx4ut46Wt48u1afOsfm2akpN/Sv3aNCUnvwX6tWlKTn4D9GvTlJz89AvaNCnI1ejKehO0aVKQq9SV3SZo06QgV68ri03Qpkk3o6vZla0maNOkIFezKyutX5s2zxG0aVJQ/hEJ2jQpKD/8gjZNCsoPv6BNk4Lyw69o07QkW7crm03RpmlJtnpXlpuiTdOSbA2v7DdFm6bdlbaOV1acok3Tkmwdr2w5tGlo09CmPRGiTbsN2jS0aWjTKoM2DW1a07tCmzZ7fsPr0aY9Dtq0aVb4ltbG7ALggAMOOOCAAw444IADDjjD42xMOgANNNBAAw000EADDTTQQDMOzdvIDsABBxxwwAEHHHDAAQcccPqfhzbtPmjTJm1ajKFNOw2gTTu9TJu2+ygWa5qSszflHEw5R1POyZRzNuVcTDlXU87sR/dSkKvR4ap0uDodrlKHq9XhqnW4eh2uYoer2cXV7GK7q13NLq5ml6ZmL9ejzaL67WhCTPoJ9bvRhJj03Peb0YSY9Mz3e9GEmPS8C1Y0JcfU43yNCUo0JcdU5XyHCT40JcfU5nyBCTI05R409TnfXoIJTckx9TlfXf0atFmMYEFTctKPR3CgKTnpcRcMaEpOetwF/5mSkx53xX4mBbkanW8wRX0mBblKnS8xxXsmBbl6ne8xRXom3YyuZuerTDGeSUGuZufbDN0ZujN0Z0+E6M5ug+4M3Rm6s8qgO0N31vSu0J3Nnt/wenRnj4PubJoVvl21MSsAOOCAAw444IADDjjggAPO8DgbkwVAAw000EADDTTQQAMNNNCMQ/M2kgJwwAEHHHDAAQcccMABB5z+56E7uw+6s0l3VsbQnZ0H0J2dX6g72x1NvjMhaO8KOriCjq6gkyvo7Aq6uIKurqBPP7dXkmzdDlu5w9busNU7bP0OW8HD1vCwVTxsHS+2jhff/W3reLF1vLR1vEWD9pileND6c/JPSTGh9efkt4DiQuvPyW8AxYbWn5OffsmHJgS5Gl1Zb5ISTQhylbqy2yQrmhDk6nVlsUliNOFmdDW7stUkN5oQ5Gp2ZaUperTHHMmPJgTlH5FkSBOC8sMvOdKEoPzwS5Y0ISg//JonTUmydbuy2TRVmpJkq3dluWm2NCXJ1vDKftOEacpdaet4ZcVpzjQlydbxypZDm4Y2DW3aEyHatNugTUObhjatMmjT0KY1vSu0abPnN7webdrjoE2bZoVvaW3MLgAOOOCAAw444IADDjjggDM8zsakA9BAAw000EADDTTQQAMNNOPQvI3sABxwwAEHHHDAAQcccMABp/95aNPugzZt0qbtx9CmXQbQpl1epk07ff1RaK/ixhW0dwUdXEFHV9DJFXR2BV1cQVdX0OzX91qSrdthK3fY2h22eoet32EreNgaHraKh63jxdbx4ru/bR0vto6Xto4v16bNs/q1aUpO/in1a9OUnPwW6NemKTn5DdCvTVNy8tMvaNOkIFejK+tN0KZJQa5SV3aboE2Tgly9riw2QZsm3YyuZle2mqBNk4Jcza6stH5t2jxH0KZJQflHJGjTpKD88AvaNCkoP/yCNk0Kyg+/ok3Tkmzdrmw2RZumJdnqXVluijZNS7I1vLLfFG2adlfaOl5ZcYo2TUuydbyy5dCmoU1Dm/ZEiDbtNmjT0KahTasM2jS0aU3vCm3a7PkNr0eb9jho06ZZ4VtaG7MLgAMOOOCAAw444IADDjjgDI+zMekANNBAAw000EADDTTQQAPNODRvIzsABxxwwAEHHHDAAQcccMDpfx7atPugTZu0aYcxtGnXAbRpV7RpfUFo074fhDZtURLaNLRpaNPQpqFNQ5uGNg1tGtq0X70Z0aZ9Pwht2neD0KahTUObhjbNloQ2bVkS2rQcBm0a2rTPgzbtGz7atM+DNm3JoE1rez3aNLRpTe8Kbdrs+Q2vR5v2OGjTplnhW1obswuAAw444IADDjjggAMOOOAMj7Mx6QA00EADDTTQQAMNNNBAA804NG8jOwAHHHDAAQcccMABBxxwwOl/Htq0+6BN+6ZNuwxhTYvdbvvatBvkq7xpu49i0aYpOXtTzsGUczTlnEw5Z1POxZRzNeXMfnUvBbkaHa5Kh6vT4Sp1uFodrlqHq9fhKna4ml1czS62u9rV7OJqdmlq9nI/2iyqX48mxKSfUL8cTYhJz32/Gk2ISc98vxhNiEnPu6BFU3JMPc7XmOBEU3JMVc53mCBEU3JMbc4XmGBDU+5BU5/z7SWo0JQcU5/z1dXvQZvFCBo0JSf9eAQJmpKTHndBgabkpMddEKApOelxV/RnUpCr0fkGU9xnUpCr1PkSU8RnUpCr1/keU6xn0s3oana+yhTlmRTkana+zfCd4TvDd/ZEiO/sNvjO8J3hO6sMvjN8Z03vCt/Z7PkNr8d39jj4zqZZ4etVG9MCgAMOOOCAAw444IADDjjgDI+zMVsANNBAAw000EADDTTQQAPNODRvYykABxxwwAEHHHDAAQcccMDpfx6+s/vgO/vmO7sO4juLEXxn8TLfWRx2H7uHiYNFf2aM3a8Te1gn9rhO7Gmd2PM6sZd1Yq/rxM5+7e/MXemcxUoHLVY6abHSUYuVzlqsdNhipdMWKx23WOm8lZXOW1lrr6103spK560o5225V66W3K+Z86Uu/XT7JXS+1KU3Wb+izpe69BbrF9j5UpfeYILezhi7zula/OeC4MIzxq5zwBb/rSCI84yx65yxxX8oCJY941ZY55Qt/itBUPIZY9c5ZYv/ROj399VSBZ2fMXbpRyvI/oyxSy8wQQVojF16gQmiQGPs0gtM0Qg6c1c6Z4v/UlCcg87clY7a4j8WFEGhM3el07b47wXFZujcEyudt8V/MijqQ2fuSudt8V8NeBLxJOJJfCLEk3gbPIl4EvEkVgZPIp7EpneFJ3H2/IbX40l8HDyJ06zwtcyN6UTAAQcccMABBxxwwAEHHHCGx9mYZQQaaKCBBhpooIEGGmiggWYcmrexm4ADDjjggAMOOOCAAw444PQ/77/Bk/hPX/7wH19+/s2f//PnLz/8z7/9X2gTt6VN/PLzf/342y8//PNvbs37+59++o8fbv8Pu33P+bD720EUimUEhWJ5mULxdP24PszlajEo+lL3q6QeVkk9rpJ6WiX1vErqZZXU6yqpM8GBMXad0xXrHK9Y53zFOgcs1jlhsc4Ri3XOWKxzyGKdU1bWOWVlpR22zikr65yyIpyy5arESnC/KdEWuvCT7fck2kIX3l39lkRb6MJ7q9+RaAtdeGcJhkRf6ipnaumfBYIe0Ze6yrFa+jeB4Eb0pa5yspb+QSCIEX07YJWztfSvAcGK6Etd5Wwt/VOgX4lYCRWMiL7UhR+r4EP0pS68sgQboi914ZUluBB9qQuvLMWEaIxd53Qt/YtA0SAaY9c5YEv/KFAciMbYdc7Y0r8LFAGicSusc8qW/mmg2A+NseucsqV/HaA+RH2I+vCJEPXhbVAfoj5EfVgZ1IeoD5veFerD2fMbXo/68HFQH06zwjctN2YIAQcccMABBxxwwAEHHHDAGR5nY+IQaKCBBhpooIEGGmiggQaacWjeRlgCDjjggAMOOOCAAw444IDT/zzUh78+b6s+/Kvy8O++fP2P//OHf/nxyx///Ff54T/+9l+//O4/f/n8//cP52EkiPsRJIj7l0kQv/70tFfCZMrZm3IOppyjKedkyjmbci6mnKspZ2YXkIJcjQ5XpcPV6XCVOlytDletw9XrcBU7XM0urmYX213tanZxNbs0NXu5tG8W1a/pE2LST6hfxSfEpOe+X7cnxKRnvl+pJ8Sk513Q5ik5ph7na0yQ4Sk5pirnO0xQ3Ck5pjbnC0wQ1yn3oKnP+fYSdHRKjqnP+erql8zNYgStnJKTfjyCOk7JSY+7oIdTctLjLijglJz0uCuaNynI1eh8gynyNinIVep8iSlKNinI1et8jymiNelmdDU7X2WKPk0KcjU732ZI0YaQovHP/DP/zD/zz/wz/8w/88/8M//MP/PP/DP/zD/zz1v65798/PRfX37++cffffmH39z+h6r42CHFf3gnSPGnQYrfNEjxkeI3DFL8z4MU//MgxW8cpPhI8X91kOKDAw444IADDjjggAMOOOCAM4JSEhpooIEGGmiggQYaaKCBZhyat1FZggMOOOCAAw444IADDjjg9D/vv0GK/39//MOXP/7px5/++O9f/vQnlPjbUuL/9PO//fD/fv/7H3/745c//vYvkwj/tQr8+6s//cvj//3tv//1P6f0+3+Z/uNffvrdX27/+a9//sO//83/+P+e2IxW"
               },
               {
                  "name" : "annual_peak_electric_demand",
                  "units" : "kW",
                  "value" : 243.46677
               },
               {
                  "name" : "first_year_capital_cost",
                  "units" : "$",
                  "value" : 0
               },
               {
                  "name" : "annual_utility_cost",
                  "units" : "$",
                  "value" : 70970.389999999999
               },
               {
                  "name" : "total_lifecycle_cost",
                  "units" : "$",
                  "value" : 1188215.6499999999
               }
            ],
            "step_warnings" : [ "A table in Annual Overview section returned false and was skipped." ]
         }
      }
   ],
   "updated_at" : "20170710T191501Z",
   "weather_file" : "USA_CO_Denver.Intl.AP.725650_TMY3.epw"
}
