{
   "completed_at" : "20170710T194304Z",
   "completed_status" : "Success",
   "created_at" : "2017-07-10 19:16:12 +0000",
   "current_step" : 5,
   "description" : "",
   "eplusout_err" : "Program Version,EnergyPlus, Version 8.7.0-78a111df4a, YMD=2017.07.10 19:26,IDD_Version 8.7.0\n   ************* IDF Context for following error/warning message:\n   ************* Note -- lines truncated at 300 characters, if necessary...\n   *************      5 Building,\n   ************* indicated Name=NECB 2011-Outpatient-NECB HDD Method-CAN_PQ_Montreal.Intl.AP.716270_CWEC.epw created: 2017-07-10 19:16:29 +0000\n   ************* Only last 1 lines before error line shown.....\n   *************      6   NECB 2011-Outpatient-NECB HDD Method-CAN_PQ_Montreal.Intl.AP.716270_CWEC.epw created: 2017-07-10 19:16:29 +0000, !- Name\n   ** Warning ** IP: IDF line~6 Alpha Argument length exceeds maximum, will be truncated=  NECB 2011-Outpatient-NECB HDD Method-CAN_PQ_Montreal.Intl.AP.716270_CWEC.epw created: 2017-07-10 19:16:29 +000\n   **   ~~~   ** Will be processed as Alpha=NECB 2011-OUTPATIENT-NECB HDD METHOD-CAN_PQ_MONTREAL.INTL.AP.716270_CWEC.EPW CREATED: 2017-07-10 19:16:29 +0000\n   ************* IDF Context for following error/warning message:\n   ************* Note -- lines truncated at 300 characters, if necessary...\n   *************  33216 Schedule:Week:Daily,\n   ************* indicated Name=Schedule:Week:Daily {4a41e457-d387-4570-bbf5-29b82e9aaab9}\n   ************* Only last 10 lines before error line shown.....\n   *************  33217   Schedule:Week:Daily {4a41e457-d387-4570-bbf5-29b82e9aaab9}, !- Name\n   *************  33218   Sp-Floor 3 Physical Therapy 1 Sys-3 Flr-2 Sch-C HPlcmt-south ZN NECB System 3 PSZ Occ Sch Sunday, !- Sunday Schedule:Day Name\n   *************  33219   Sp-Floor 3 Physical Therapy 1 Sys-3 Flr-2 Sch-C HPlcmt-south ZN NECB System 3 PSZ Occ Sch Monday, !- Monday Schedule:Day Name\n   *************  33220   Sp-Floor 3 Physical Therapy 1 Sys-3 Flr-2 Sch-C HPlcmt-south ZN NECB System 3 PSZ Occ Sch Tuesday, !- Tuesday Schedule:Day Name\n   *************  33221   Sp-Floor 3 Physical Therapy 1 Sys-3 Flr-2 Sch-C HPlcmt-south ZN NECB System 3 PSZ Occ Sch Wednesday, !- Wednesday Schedule:Day Name\n   *************  33222   Sp-Floor 3 Physical Therapy 1 Sys-3 Flr-2 Sch-C HPlcmt-south ZN NECB System 3 PSZ Occ Sch Thursday, !- Thursday Schedule:Day Name\n   *************  33223   Sp-Floor 3 Physical Therapy 1 Sys-3 Flr-2 Sch-C HPlcmt-south ZN NECB System 3 PSZ Occ Sch Friday, !- Friday Schedule:Day Name\n   *************  33224   Sp-Floor 3 Physical Therapy 1 Sys-3 Flr-2 Sch-C HPlcmt-south ZN NECB System 3 PSZ Occ Sch Saturday, !- Saturday Schedule:Day Name\n   *************  33225   Sp-Floor 3 Physical Therapy 1 Sys-3 Flr-2 Sch-C HPlcmt-south ZN NECB System 3 PSZ Occ Sch Default, !- Holiday Schedule:Day Name\n   *************  33226   Sp-Floor 3 Physical Therapy 1 Sys-3 Flr-2 Sch-C HPlcmt-south ZN NECB System 3 PSZ Occ Sch Summer Design Day, !- SummerDesignDay Schedule:Day Name\n   ** Warning ** IP: IDF line~33226 Alpha Argument length exceeds maximum, will be truncated=  Sp-Floor 3 Physical Therapy 1 Sys-3 Flr-2 Sch-C HPlcmt-south ZN NECB System 3 PSZ Occ Sch Summer Design Da\n   **   ~~~   ** Will be processed as Alpha=SP-FLOOR 3 PHYSICAL THERAPY 1 SYS-3 FLR-2 SCH-C HPLCMT-SOUTH ZN NECB SYSTEM 3 PSZ OCC SCH SUMMER DESIGN DAY\n   ************* IDF Context for following error/warning message:\n   ************* Note -- lines truncated at 300 characters, if necessary...\n   *************  33216 Schedule:Week:Daily,\n   ************* indicated Name=Schedule:Week:Daily {4a41e457-d387-4570-bbf5-29b82e9aaab9}\n   ************* Only last 10 lines before error line shown.....\n   *************  33218   Sp-Floor 3 Physical Therapy 1 Sys-3 Flr-2 Sch-C HPlcmt-south ZN NECB System 3 PSZ Occ Sch Sunday, !- Sunday Schedule:Day Name\n   *************  33219   Sp-Floor 3 Physical Therapy 1 Sys-3 Flr-2 Sch-C HPlcmt-south ZN NECB System 3 PSZ Occ Sch Monday, !- Monday Schedule:Day Name\n   *************  33220   Sp-Floor 3 Physical Therapy 1 Sys-3 Flr-2 Sch-C HPlcmt-south ZN NECB System 3 PSZ Occ Sch Tuesday, !- Tuesday Schedule:Day Name\n   *************  33221   Sp-Floor 3 Physical Therapy 1 Sys-3 Flr-2 Sch-C HPlcmt-south ZN NECB System 3 PSZ Occ Sch Wednesday, !- Wednesday Schedule:Day Name\n   *************  33222   Sp-Floor 3 Physical Therapy 1 Sys-3 Flr-2 Sch-C HPlcmt-south ZN NECB System 3 PSZ Occ Sch Thursday, !- Thursday Schedule:Day Name\n   *************  33223   Sp-Floor 3 Physical Therapy 1 Sys-3 Flr-2 Sch-C HPlcmt-south ZN NECB System 3 PSZ Occ Sch Friday, !- Friday Schedule:Day Name\n   *************  33224   Sp-Floor 3 Physical Therapy 1 Sys-3 Flr-2 Sch-C HPlcmt-south ZN NECB System 3 PSZ Occ Sch Saturday, !- Saturday Schedule:Day Name\n   *************  33225   Sp-Floor 3 Physical Therapy 1 Sys-3 Flr-2 Sch-C HPlcmt-south ZN NECB System 3 PSZ Occ Sch Default, !- Holiday Schedule:Day Name\n   *************  33226   Sp-Floor 3 Physical Therapy 1 Sys-3 Flr-2 Sch-C HPlcmt-south ZN NECB System 3 PSZ Occ Sch Summer Design Day, !- SummerDesignDay Schedule:Day Name\n   *************  33227   Sp-Floor 3 Physical Therapy 1 Sys-3 Flr-2 Sch-C HPlcmt-south ZN NECB System 3 PSZ Occ Sch Winter Design Day, !- WinterDesignDay Schedule:Day Name\n   ** Warning ** IP: IDF line~33227 Alpha Argument length exceeds maximum, will be truncated=  Sp-Floor 3 Physical Therapy 1 Sys-3 Flr-2 Sch-C HPlcmt-south ZN NECB System 3 PSZ Occ Sch Winter Design Da\n   **   ~~~   ** Will be processed as Alpha=SP-FLOOR 3 PHYSICAL THERAPY 1 SYS-3 FLR-2 SCH-C HPLCMT-SOUTH ZN NECB SYSTEM 3 PSZ OCC SCH WINTER DESIGN DAY\n   ************* IDF Context for following error/warning message:\n   ************* Note -- lines truncated at 300 characters, if necessary...\n   *************  33247 Schedule:Day:Interval,\n   ************* indicated Name=Sp-Floor 3 Physical Therapy 1 Sys-3 Flr-2 Sch-C HPlcmt-south ZN NECB System 3 PSZ Occ Sch Summer Design Day\n   ************* Only last 1 lines before error line shown.....\n   *************  33248   Sp-Floor 3 Physical Therapy 1 Sys-3 Flr-2 Sch-C HPlcmt-south ZN NECB System 3 PSZ Occ Sch Summer Design Day, !- Name\n   ** Warning ** IP: IDF line~33248 Alpha Argument length exceeds maximum, will be truncated=  Sp-Floor 3 Physical Therapy 1 Sys-3 Flr-2 Sch-C HPlcmt-south ZN NECB System 3 PSZ Occ Sch Summer Design Da\n   **   ~~~   ** Will be processed as Alpha=SP-FLOOR 3 PHYSICAL THERAPY 1 SYS-3 FLR-2 SCH-C HPLCMT-SOUTH ZN NECB SYSTEM 3 PSZ OCC SCH SUMMER DESIGN DAY\n   ************* IDF Context for following error/warning message:\n   ************* Note -- lines truncated at 300 characters, if necessary...\n   *************  33254 Schedule:Day:Interval,\n   ************* indicated Name=Sp-Floor 3 Physical Therapy 1 Sys-3 Flr-2 Sch-C HPlcmt-south ZN NECB System 3 PSZ Occ Sch Winter Design Day\n   ************* Only last 1 lines before error line shown.....\n   *************  33255   Sp-Floor 3 Physical Therapy 1 Sys-3 Flr-2 Sch-C HPlcmt-south ZN NECB System 3 PSZ Occ Sch Winter Design Day, !- Name\n   ** Warning ** IP: IDF line~33255 Alpha Argument length exceeds maximum, will be truncated=  Sp-Floor 3 Physical Therapy 1 Sys-3 Flr-2 Sch-C HPlcmt-south ZN NECB System 3 PSZ Occ Sch Winter Design Da\n   **   ~~~   ** Will be processed as Alpha=SP-FLOOR 3 PHYSICAL THERAPY 1 SYS-3 FLR-2 SCH-C HPLCMT-SOUTH ZN NECB SYSTEM 3 PSZ OCC SCH WINTER DESIGN DAY\n   ************* IDF Context for following error/warning message:\n   ************* Note -- lines truncated at 300 characters, if necessary...\n   *************  35122 Schedule:Week:Daily,\n   ************* indicated Name=Schedule:Week:Daily {5a9d8a04-34c8-41ce-98fe-36213b98b087}\n   ************* Only last 10 lines before error line shown.....\n   *************  35123   Schedule:Week:Daily {5a9d8a04-34c8-41ce-98fe-36213b98b087}, !- Name\n   *************  35124   Sp-Floor 3 Undeveloped 1 Sys-4 Flr-2 Sch-E HPlcmt-south ZN NECB System 4 PSZ Occ Sch Sunday, !- Sunday Schedule:Day Name\n   *************  35125   Sp-Floor 3 Undeveloped 1 Sys-4 Flr-2 Sch-E HPlcmt-south ZN NECB System 4 PSZ Occ Sch Monday, !- Monday Schedule:Day Name\n   *************  35126   Sp-Floor 3 Undeveloped 1 Sys-4 Flr-2 Sch-E HPlcmt-south ZN NECB System 4 PSZ Occ Sch Tuesday, !- Tuesday Schedule:Day Name\n   *************  35127   Sp-Floor 3 Undeveloped 1 Sys-4 Flr-2 Sch-E HPlcmt-south ZN NECB System 4 PSZ Occ Sch Wednesday, !- Wednesday Schedule:Day Name\n   *************  35128   Sp-Floor 3 Undeveloped 1 Sys-4 Flr-2 Sch-E HPlcmt-south ZN NECB System 4 PSZ Occ Sch Thursday, !- Thursday Schedule:Day Name\n   *************  35129   Sp-Floor 3 Undeveloped 1 Sys-4 Flr-2 Sch-E HPlcmt-south ZN NECB System 4 PSZ Occ Sch Friday, !- Friday Schedule:Day Name\n   *************  35130   Sp-Floor 3 Undeveloped 1 Sys-4 Flr-2 Sch-E HPlcmt-south ZN NECB System 4 PSZ Occ Sch Saturday, !- Saturday Schedule:Day Name\n   *************  35131   Sp-Floor 3 Undeveloped 1 Sys-4 Flr-2 Sch-E HPlcmt-south ZN NECB System 4 PSZ Occ Sch Default, !- Holiday Schedule:Day Name\n   *************  35132   Sp-Floor 3 Undeveloped 1 Sys-4 Flr-2 Sch-E HPlcmt-south ZN NECB System 4 PSZ Occ Sch Summer Design Day, !- SummerDesignDay Schedule:Day Name\n   ** Warning ** IP: IDF line~35132 Alpha Argument length exceeds maximum, will be truncated=  Sp-Floor 3 Undeveloped 1 Sys-4 Flr-2 Sch-E HPlcmt-south ZN NECB System 4 PSZ Occ Sch Summer Design Da\n   **   ~~~   ** Will be processed as Alpha=SP-FLOOR 3 UNDEVELOPED 1 SYS-4 FLR-2 SCH-E HPLCMT-SOUTH ZN NECB SYSTEM 4 PSZ OCC SCH SUMMER DESIGN DAY\n   ************* IDF Context for following error/warning message:\n   ************* Note -- lines truncated at 300 characters, if necessary...\n   *************  35122 Schedule:Week:Daily,\n   ************* indicated Name=Schedule:Week:Daily {5a9d8a04-34c8-41ce-98fe-36213b98b087}\n   ************* Only last 10 lines before error line shown.....\n   *************  35124   Sp-Floor 3 Undeveloped 1 Sys-4 Flr-2 Sch-E HPlcmt-south ZN NECB System 4 PSZ Occ Sch Sunday, !- Sunday Schedule:Day Name\n   *************  35125   Sp-Floor 3 Undeveloped 1 Sys-4 Flr-2 Sch-E HPlcmt-south ZN NECB System 4 PSZ Occ Sch Monday, !- Monday Schedule:Day Name\n   *************  35126   Sp-Floor 3 Undeveloped 1 Sys-4 Flr-2 Sch-E HPlcmt-south ZN NECB System 4 PSZ Occ Sch Tuesday, !- Tuesday Schedule:Day Name\n   *************  35127   Sp-Floor 3 Undeveloped 1 Sys-4 Flr-2 Sch-E HPlcmt-south ZN NECB System 4 PSZ Occ Sch Wednesday, !- Wednesday Schedule:Day Name\n   *************  35128   Sp-Floor 3 Undeveloped 1 Sys-4 Flr-2 Sch-E HPlcmt-south ZN NECB System 4 PSZ Occ Sch Thursday, !- Thursday Schedule:Day Name\n   *************  35129   Sp-Floor 3 Undeveloped 1 Sys-4 Flr-2 Sch-E HPlcmt-south ZN NECB System 4 PSZ Occ Sch Friday, !- Friday Schedule:Day Name\n   *************  35130   Sp-Floor 3 Undeveloped 1 Sys-4 Flr-2 Sch-E HPlcmt-south ZN NECB System 4 PSZ Occ Sch Saturday, !- Saturday Schedule:Day Name\n   *************  35131   Sp-Floor 3 Undeveloped 1 Sys-4 Flr-2 Sch-E HPlcmt-south ZN NECB System 4 PSZ Occ Sch Default, !- Holiday Schedule:Day Name\n   *************  35132   Sp-Floor 3 Undeveloped 1 Sys-4 Flr-2 Sch-E HPlcmt-south ZN NECB System 4 PSZ Occ Sch Summer Design Day, !- SummerDesignDay Schedule:Day Name\n   *************  35133   Sp-Floor 3 Undeveloped 1 Sys-4 Flr-2 Sch-E HPlcmt-south ZN NECB System 4 PSZ Occ Sch Winter Design Day, !- WinterDesignDay Schedule:Day Name\n   ** Warning ** IP: IDF line~35133 Alpha Argument length exceeds maximum, will be truncated=  Sp-Floor 3 Undeveloped 1 Sys-4 Flr-2 Sch-E HPlcmt-south ZN NECB System 4 PSZ Occ Sch Winter Design Da\n   **   ~~~   ** Will be processed as Alpha=SP-FLOOR 3 UNDEVELOPED 1 SYS-4 FLR-2 SCH-E HPLCMT-SOUTH ZN NECB SYSTEM 4 PSZ OCC SCH WINTER DESIGN DAY\n   ************* IDF Context for following error/warning message:\n   ************* Note -- lines truncated at 300 characters, if necessary...\n   *************  35153 Schedule:Day:Interval,\n   ************* indicated Name=Sp-Floor 3 Undeveloped 1 Sys-4 Flr-2 Sch-E HPlcmt-south ZN NECB System 4 PSZ Occ Sch Summer Design Day\n   ************* Only last 1 lines before error line shown.....\n   *************  35154   Sp-Floor 3 Undeveloped 1 Sys-4 Flr-2 Sch-E HPlcmt-south ZN NECB System 4 PSZ Occ Sch Summer Design Day, !- Name\n   ** Warning ** IP: IDF line~35154 Alpha Argument length exceeds maximum, will be truncated=  Sp-Floor 3 Undeveloped 1 Sys-4 Flr-2 Sch-E HPlcmt-south ZN NECB System 4 PSZ Occ Sch Summer Design Da\n   **   ~~~   ** Will be processed as Alpha=SP-FLOOR 3 UNDEVELOPED 1 SYS-4 FLR-2 SCH-E HPLCMT-SOUTH ZN NECB SYSTEM 4 PSZ OCC SCH SUMMER DESIGN DAY\n   ************* IDF Context for following error/warning message:\n   ************* Note -- lines truncated at 300 characters, if necessary...\n   *************  35160 Schedule:Day:Interval,\n   ************* indicated Name=Sp-Floor 3 Undeveloped 1 Sys-4 Flr-2 Sch-E HPlcmt-south ZN NECB System 4 PSZ Occ Sch Winter Design Day\n   ************* Only last 1 lines before error line shown.....\n   *************  35161   Sp-Floor 3 Undeveloped 1 Sys-4 Flr-2 Sch-E HPlcmt-south ZN NECB System 4 PSZ Occ Sch Winter Design Day, !- Name\n   ** Warning ** IP: IDF line~35161 Alpha Argument length exceeds maximum, will be truncated=  Sp-Floor 3 Undeveloped 1 Sys-4 Flr-2 Sch-E HPlcmt-south ZN NECB System 4 PSZ Occ Sch Winter Design Da\n   **   ~~~   ** Will be processed as Alpha=SP-FLOOR 3 UNDEVELOPED 1 SYS-4 FLR-2 SCH-E HPLCMT-SOUTH ZN NECB SYSTEM 4 PSZ OCC SCH WINTER DESIGN DAY\n   ************* IDF Context for following error/warning message:\n   ************* Note -- lines truncated at 300 characters, if necessary...\n   *************  49812 AirLoopHVAC,\n   ************* indicated Name=Sp-Floor 1 Electrical Room Sys-3 Flr-3 Sch-H HPlcmt-east ZN NECB System 3 PSZ\n   ************* Only last 3 lines before error line shown.....\n   *************  49813   Sp-Floor 1 Electrical Room Sys-3 Flr-3 Sch-H HPlcmt-east ZN NECB System 3 PSZ, !- Name\n   *************  49814   ,                                       !- Controller List Name\n   *************  49815   Sp-Floor 1 Electrical Room Sys-3 Flr-3 Sch-H HPlcmt-east ZN NECB System 3 PSZAvailability Manager List, !- Availability Manager List Name\n   ** Warning ** IP: IDF line~49815 Alpha Argument length exceeds maximum, will be truncated=  Sp-Floor 1 Electrical Room Sys-3 Flr-3 Sch-H HPlcmt-east ZN NECB System 3 PSZAvailability Manager Lis\n   **   ~~~   ** Will be processed as Alpha=SP-FLOOR 1 ELECTRICAL ROOM SYS-3 FLR-3 SCH-H HPLCMT-EAST ZN NECB SYSTEM 3 PSZAVAILABILITY MANAGER LIST\n   ************* IDF Context for following error/warning message:\n   ************* Note -- lines truncated at 300 characters, if necessary...\n   *************  49871 AvailabilityManagerAssignmentList,\n   ************* indicated Name=Sp-Floor 1 Electrical Room Sys-3 Flr-3 Sch-H HPlcmt-east ZN NECB System 3 PSZAvailability Manager List\n   ************* Only last 1 lines before error line shown.....\n   *************  49872   Sp-Floor 1 Electrical Room Sys-3 Flr-3 Sch-H HPlcmt-east ZN NECB System 3 PSZAvailability Manager List, !- Name\n   ** Warning ** IP: IDF line~49872 Alpha Argument length exceeds maximum, will be truncated=  Sp-Floor 1 Electrical Room Sys-3 Flr-3 Sch-H HPlcmt-east ZN NECB System 3 PSZAvailability Manager Lis\n   **   ~~~   ** Will be processed as Alpha=SP-FLOOR 1 ELECTRICAL ROOM SYS-3 FLR-3 SCH-H HPLCMT-EAST ZN NECB SYSTEM 3 PSZAVAILABILITY MANAGER LIST\n   ************* IDF Context for following error/warning message:\n   ************* Note -- lines truncated at 300 characters, if necessary...\n   *************  50134 AirLoopHVAC,\n   ************* indicated Name=Sp-Floor 1 Elevator Pump Room Sys-3 Flr-3 Sch-H HPlcmt-north ZN NECB System 3 PSZ\n   ************* Only last 3 lines before error line shown.....\n   *************  50135   Sp-Floor 1 Elevator Pump Room Sys-3 Flr-3 Sch-H HPlcmt-north ZN NECB System 3 PSZ, !- Name\n   *************  50136   ,                                       !- Controller List Name\n   *************  50137   Sp-Floor 1 Elevator Pump Room Sys-3 Flr-3 Sch-H HPlcmt-north ZN NECB System 3 PSZAvailability Manager List, !- Availability Manager List Name\n   ** Warning ** IP: IDF line~50137 Alpha Argument length exceeds maximum, will be truncated=  Sp-Floor 1 Elevator Pump Room Sys-3 Flr-3 Sch-H HPlcmt-north ZN NECB System 3 PSZAvailability Manager Lis\n   **   ~~~   ** Will be processed as Alpha=SP-FLOOR 1 ELEVATOR PUMP ROOM SYS-3 FLR-3 SCH-H HPLCMT-NORTH ZN NECB SYSTEM 3 PSZAVAILABILITY MANAGER LIST\n   ************* IDF Context for following error/warning message:\n   ************* Note -- lines truncated at 300 characters, if necessary...\n   *************  50134 AirLoopHVAC,\n   ************* indicated Name=Sp-Floor 1 Elevator Pump Room Sys-3 Flr-3 Sch-H HPlcmt-north ZN NECB System 3 PSZ\n   ************* Only last 10 lines before error line shown.....\n   *************  50135   Sp-Floor 1 Elevator Pump Room Sys-3 Flr-3 Sch-H HPlcmt-north ZN NECB System 3 PSZ, !- Name\n   *************  50136   ,                                       !- Controller List Name\n   *************  50137   Sp-Floor 1 Elevator Pump Room Sys-3 Flr-3 Sch-H HPlcmt-north ZN NECB System 3 PSZAvailability Manager List, !- Availability Manager List Name\n   *************  50138   AutoSize,                               !- Design Supply Air Flow Rate {m3/s}\n   *************  50139   Sp-Floor 1 Elevator Pump Room Sys-3 Flr-3 Sch-H HPlcmt-north ZN NECB System 3 PSZ Supply Branches, !- Branch List Name\n   *************  50140   ,                                       !- Connector List Name\n   *************  50141   Node 559,                               !- Supply Side Inlet Node Name\n   *************  50142   Node 562,                               !- Demand Side Outlet Node Name\n   *************  50143   Sp-Floor 1 Elevator Pump Room Sys-3 Flr-3 Sch-H HPlcmt-north ZN NECB System 3 PSZ Demand Inlet Nodes, !- Demand Side Inlet Node Names\n   *************  50144   Sp-Floor 1 Elevator Pump Room Sys-3 Flr-3 Sch-H HPlcmt-north ZN NECB System 3 PSZ Supply Outlet Nodes; !- Supply Side Outlet Node Names\n   ** Warning ** IP: IDF line~50144 Alpha Argument length exceeds maximum, will be truncated=  Sp-Floor 1 Elevator Pump Room Sys-3 Flr-3 Sch-H HPlcmt-north ZN NECB System 3 PSZ Supply Outlet Node\n   **   ~~~   ** Will be processed as Alpha=SP-FLOOR 1 ELEVATOR PUMP ROOM SYS-3 FLR-3 SCH-H HPLCMT-NORTH ZN NECB SYSTEM 3 PSZ SUPPLY OUTLET NODES\n   ************* IDF Context for following error/warning message:\n   ************* Note -- lines truncated at 300 characters, if necessary...\n   *************  50146 NodeList,\n   ************* indicated Name=Sp-Floor 1 Elevator Pump Room Sys-3 Flr-3 Sch-H HPlcmt-north ZN NECB System 3 PSZ Supply Outlet Nodes\n   ************* Only last 1 lines before error line shown.....\n   *************  50147   Sp-Floor 1 Elevator Pump Room Sys-3 Flr-3 Sch-H HPlcmt-north ZN NECB System 3 PSZ Supply Outlet Nodes, !- Name\n   ** Warning ** IP: IDF line~50147 Alpha Argument length exceeds maximum, will be truncated=  Sp-Floor 1 Elevator Pump Room Sys-3 Flr-3 Sch-H HPlcmt-north ZN NECB System 3 PSZ Supply Outlet Node\n   **   ~~~   ** Will be processed as Alpha=SP-FLOOR 1 ELEVATOR PUMP ROOM SYS-3 FLR-3 SCH-H HPLCMT-NORTH ZN NECB SYSTEM 3 PSZ SUPPLY OUTLET NODES\n   ************* IDF Context for following error/warning message:\n   ************* Note -- lines truncated at 300 characters, if necessary...\n   *************  50193 AvailabilityManagerAssignmentList,\n   ************* indicated Name=Sp-Floor 1 Elevator Pump Room Sys-3 Flr-3 Sch-H HPlcmt-north ZN NECB System 3 PSZAvailability Manager List\n   ************* Only last 1 lines before error line shown.....\n   *************  50194   Sp-Floor 1 Elevator Pump Room Sys-3 Flr-3 Sch-H HPlcmt-north ZN NECB System 3 PSZAvailability Manager List, !- Name\n   ** Warning ** IP: IDF line~50194 Alpha Argument length exceeds maximum, will be truncated=  Sp-Floor 1 Elevator Pump Room Sys-3 Flr-3 Sch-H HPlcmt-north ZN NECB System 3 PSZAvailability Manager Lis\n   **   ~~~   ** Will be processed as Alpha=SP-FLOOR 1 ELEVATOR PUMP ROOM SYS-3 FLR-3 SCH-H HPLCMT-NORTH ZN NECB SYSTEM 3 PSZAVAILABILITY MANAGER LIST\n   ************* IDF Context for following error/warning message:\n   ************* Note -- lines truncated at 300 characters, if necessary...\n   *************  50193 AvailabilityManagerAssignmentList,\n   ************* indicated Name=Sp-Floor 1 Elevator Pump Room Sys-3 Flr-3 Sch-H HPlcmt-north ZN NECB System 3 PSZAvailability Manager List\n   ************* Only last 3 lines before error line shown.....\n   *************  50194   Sp-Floor 1 Elevator Pump Room Sys-3 Flr-3 Sch-H HPlcmt-north ZN NECB System 3 PSZAvailability Manager List, !- Name\n   *************  50195   AvailabilityManager:Scheduled,          !- Availability Manager Object Type 1\n   *************  50196   Sp-Floor 1 Elevator Pump Room Sys-3 Flr-3 Sch-H HPlcmt-north ZN NECB System 3 PSZ Availability Manager; !- Availability Manager Name 1\n   ** Warning ** IP: IDF line~50196 Alpha Argument length exceeds maximum, will be truncated=  Sp-Floor 1 Elevator Pump Room Sys-3 Flr-3 Sch-H HPlcmt-north ZN NECB System 3 PSZ Availability Manage\n   **   ~~~   ** Will be processed as Alpha=SP-FLOOR 1 ELEVATOR PUMP ROOM SYS-3 FLR-3 SCH-H HPLCMT-NORTH ZN NECB SYSTEM 3 PSZ AVAILABILITY MANAGER\n   ************* IDF Context for following error/warning message:\n   ************* Note -- lines truncated at 300 characters, if necessary...\n   *************  50198 AvailabilityManager:Scheduled,\n   ************* indicated Name=Sp-Floor 1 Elevator Pump Room Sys-3 Flr-3 Sch-H HPlcmt-north ZN NECB System 3 PSZ Availability Manager\n   ************* Only last 1 lines before error line shown.....\n   *************  50199   Sp-Floor 1 Elevator Pump Room Sys-3 Flr-3 Sch-H HPlcmt-north ZN NECB System 3 PSZ Availability Manager, !- Name\n   ** Warning ** IP: IDF line~50199 Alpha Argument length exceeds maximum, will be truncated=  Sp-Floor 1 Elevator Pump Room Sys-3 Flr-3 Sch-H HPlcmt-north ZN NECB System 3 PSZ Availability Manage\n   **   ~~~   ** Will be processed as Alpha=SP-FLOOR 1 ELEVATOR PUMP ROOM SYS-3 FLR-3 SCH-H HPLCMT-NORTH ZN NECB SYSTEM 3 PSZ AVAILABILITY MANAGER\n   ************* IDF Context for following error/warning message:\n   ************* Note -- lines truncated at 300 characters, if necessary...\n   *************  50434 AirLoopHVAC:SupplyPath,\n   ************* indicated Name=Sp-Floor 1 Elevator Pump Room Sys-3 Flr-3 Sch-H HPlcmt-north ZN NECB System 3 PSZ Node 561 Supply Path\n   ************* Only last 1 lines before error line shown.....\n   *************  50435   Sp-Floor 1 Elevator Pump Room Sys-3 Flr-3 Sch-H HPlcmt-north ZN NECB System 3 PSZ Node 561 Supply Path, !- Name\n   ** Warning ** IP: IDF line~50435 Alpha Argument length exceeds maximum, will be truncated=  Sp-Floor 1 Elevator Pump Room Sys-3 Flr-3 Sch-H HPlcmt-north ZN NECB System 3 PSZ Node 561 Supply Pat\n   **   ~~~   ** Will be processed as Alpha=SP-FLOOR 1 ELEVATOR PUMP ROOM SYS-3 FLR-3 SCH-H HPLCMT-NORTH ZN NECB SYSTEM 3 PSZ NODE 561 SUPPLY PATH\n   ************* IDF Context for following error/warning message:\n   ************* Note -- lines truncated at 300 characters, if necessary...\n   *************  51744 AirLoopHVAC,\n   ************* indicated Name=Sp-Floor 1 Locker Room Hall Sys-4 Flr-3 Sch-H HPlcmt-core ZN NECB System 4 PSZ\n   ************* Only last 3 lines before error line shown.....\n   *************  51745   Sp-Floor 1 Locker Room Hall Sys-4 Flr-3 Sch-H HPlcmt-core ZN NECB System 4 PSZ, !- Name\n   *************  51746   ,                                       !- Controller List Name\n   *************  51747   Sp-Floor 1 Locker Room Hall Sys-4 Flr-3 Sch-H HPlcmt-core ZN NECB System 4 PSZAvailability Manager List, !- Availability Manager List Name\n   ** Warning ** IP: IDF line~51747 Alpha Argument length exceeds maximum, will be truncated=  Sp-Floor 1 Locker Room Hall Sys-4 Flr-3 Sch-H HPlcmt-core ZN NECB System 4 PSZAvailability Manager Lis\n   **   ~~~   ** Will be processed as Alpha=SP-FLOOR 1 LOCKER ROOM HALL SYS-4 FLR-3 SCH-H HPLCMT-CORE ZN NECB SYSTEM 4 PSZAVAILABILITY MANAGER LIST\n   ************* IDF Context for following error/warning message:\n   ************* Note -- lines truncated at 300 characters, if necessary...\n   *************  51803 AvailabilityManagerAssignmentList,\n   ************* indicated Name=Sp-Floor 1 Locker Room Hall Sys-4 Flr-3 Sch-H HPlcmt-core ZN NECB System 4 PSZAvailability Manager List\n   ************* Only last 1 lines before error line shown.....\n   *************  51804   Sp-Floor 1 Locker Room Hall Sys-4 Flr-3 Sch-H HPlcmt-core ZN NECB System 4 PSZAvailability Manager List, !- Name\n   ** Warning ** IP: IDF line~51804 Alpha Argument length exceeds maximum, will be truncated=  Sp-Floor 1 Locker Room Hall Sys-4 Flr-3 Sch-H HPlcmt-core ZN NECB System 4 PSZAvailability Manager Lis\n   **   ~~~   ** Will be processed as Alpha=SP-FLOOR 1 LOCKER ROOM HALL SYS-4 FLR-3 SCH-H HPLCMT-CORE ZN NECB SYSTEM 4 PSZAVAILABILITY MANAGER LIST\n   ************* IDF Context for following error/warning message:\n   ************* Note -- lines truncated at 300 characters, if necessary...\n   *************  52710 AirLoopHVAC,\n   ************* indicated Name=Sp-Floor 1 MRI Control Room Sys-3 Flr-3 Sch-H HPlcmt-north ZN NECB System 3 PSZ\n   ************* Only last 3 lines before error line shown.....\n   *************  52711   Sp-Floor 1 MRI Control Room Sys-3 Flr-3 Sch-H HPlcmt-north ZN NECB System 3 PSZ, !- Name\n   *************  52712   ,                                       !- Controller List Name\n   *************  52713   Sp-Floor 1 MRI Control Room Sys-3 Flr-3 Sch-H HPlcmt-north ZN NECB System 3 PSZAvailability Manager List, !- Availability Manager List Name\n   ** Warning ** IP: IDF line~52713 Alpha Argument length exceeds maximum, will be truncated=  Sp-Floor 1 MRI Control Room Sys-3 Flr-3 Sch-H HPlcmt-north ZN NECB System 3 PSZAvailability Manager Lis\n   **   ~~~   ** Will be processed as Alpha=SP-FLOOR 1 MRI CONTROL ROOM SYS-3 FLR-3 SCH-H HPLCMT-NORTH ZN NECB SYSTEM 3 PSZAVAILABILITY MANAGER LIST\n   ************* IDF Context for following error/warning message:\n   ************* Note -- lines truncated at 300 characters, if necessary...\n   *************  52769 AvailabilityManagerAssignmentList,\n   ************* indicated Name=Sp-Floor 1 MRI Control Room Sys-3 Flr-3 Sch-H HPlcmt-north ZN NECB System 3 PSZAvailability Manager List\n   ************* Only last 1 lines before error line shown.....\n   *************  52770   Sp-Floor 1 MRI Control Room Sys-3 Flr-3 Sch-H HPlcmt-north ZN NECB System 3 PSZAvailability Manager List, !- Name\n   ** Warning ** IP: IDF line~52770 Alpha Argument length exceeds maximum, will be truncated=  Sp-Floor 1 MRI Control Room Sys-3 Flr-3 Sch-H HPlcmt-north ZN NECB System 3 PSZAvailability Manager Lis\n   **   ~~~   ** Will be processed as Alpha=SP-FLOOR 1 MRI CONTROL ROOM SYS-3 FLR-3 SCH-H HPLCMT-NORTH ZN NECB SYSTEM 3 PSZAVAILABILITY MANAGER LIST\n   ************* IDF Context for following error/warning message:\n   ************* Note -- lines truncated at 300 characters, if necessary...\n   *************  55286 AirLoopHVAC,\n   ************* indicated Name=Sp-Floor 1 Operating Room 1 Sys-3 Flr-3 Sch-H HPlcmt-east ZN NECB System 3 PSZ\n   ************* Only last 3 lines before error line shown.....\n   *************  55287   Sp-Floor 1 Operating Room 1 Sys-3 Flr-3 Sch-H HPlcmt-east ZN NECB System 3 PSZ, !- Name\n   *************  55288   ,                                       !- Controller List Name\n   *************  55289   Sp-Floor 1 Operating Room 1 Sys-3 Flr-3 Sch-H HPlcmt-east ZN NECB System 3 PSZAvailability Manager List, !- Availability Manager List Name\n   ** Warning ** IP: IDF line~55289 Alpha Argument length exceeds maximum, will be truncated=  Sp-Floor 1 Operating Room 1 Sys-3 Flr-3 Sch-H HPlcmt-east ZN NECB System 3 PSZAvailability Manager Lis\n   **   ~~~   ** Will be processed as Alpha=SP-FLOOR 1 OPERATING ROOM 1 SYS-3 FLR-3 SCH-H HPLCMT-EAST ZN NECB SYSTEM 3 PSZAVAILABILITY MANAGER LIST\n   ************* IDF Context for following error/warning message:\n   ************* Note -- lines truncated at 300 characters, if necessary...\n   *************  55345 AvailabilityManagerAssignmentList,\n   ************* indicated Name=Sp-Floor 1 Operating Room 1 Sys-3 Flr-3 Sch-H HPlcmt-east ZN NECB System 3 PSZAvailability Manager List\n   ************* Only last 1 lines before error line shown.....\n   *************  55346   Sp-Floor 1 Operating Room 1 Sys-3 Flr-3 Sch-H HPlcmt-east ZN NECB System 3 PSZAvailability Manager List, !- Name\n   ** Warning ** IP: IDF line~55346 Alpha Argument length exceeds maximum, will be truncated=  Sp-Floor 1 Operating Room 1 Sys-3 Flr-3 Sch-H HPlcmt-east ZN NECB System 3 PSZAvailability Manager Lis\n   **   ~~~   ** Will be processed as Alpha=SP-FLOOR 1 OPERATING ROOM 1 SYS-3 FLR-3 SCH-H HPLCMT-EAST ZN NECB SYSTEM 3 PSZAVAILABILITY MANAGER LIST\n   ************* IDF Context for following error/warning message:\n   ************* Note -- lines truncated at 300 characters, if necessary...\n   *************  55608 AirLoopHVAC,\n   ************* indicated Name=Sp-Floor 1 Operating Room 2 Sys-3 Flr-3 Sch-H HPlcmt-east ZN NECB System 3 PSZ\n   ************* Only last 3 lines before error line shown.....\n   *************  55609   Sp-Floor 1 Operating Room 2 Sys-3 Flr-3 Sch-H HPlcmt-east ZN NECB System 3 PSZ, !- Name\n   *************  55610   ,                                       !- Controller List Name\n   *************  55611   Sp-Floor 1 Operating Room 2 Sys-3 Flr-3 Sch-H HPlcmt-east ZN NECB System 3 PSZAvailability Manager List, !- Availability Manager List Name\n   ** Warning ** IP: IDF line~55611 Alpha Argument length exceeds maximum, will be truncated=  Sp-Floor 1 Operating Room 2 Sys-3 Flr-3 Sch-H HPlcmt-east ZN NECB System 3 PSZAvailability Manager Lis\n   **   ~~~   ** Will be processed as Alpha=SP-FLOOR 1 OPERATING ROOM 2 SYS-3 FLR-3 SCH-H HPLCMT-EAST ZN NECB SYSTEM 3 PSZAVAILABILITY MANAGER LIST\n   ************* IDF Context for following error/warning message:\n   ************* Note -- lines truncated at 300 characters, if necessary...\n   *************  55667 AvailabilityManagerAssignmentList,\n   ************* indicated Name=Sp-Floor 1 Operating Room 2 Sys-3 Flr-3 Sch-H HPlcmt-east ZN NECB System 3 PSZAvailability Manager List\n   ************* Only last 1 lines before error line shown.....\n   *************  55668   Sp-Floor 1 Operating Room 2 Sys-3 Flr-3 Sch-H HPlcmt-east ZN NECB System 3 PSZAvailability Manager List, !- Name\n   ** Warning ** IP: IDF line~55668 Alpha Argument length exceeds maximum, will be truncated=  Sp-Floor 1 Operating Room 2 Sys-3 Flr-3 Sch-H HPlcmt-east ZN NECB System 3 PSZAvailability Manager Lis\n   **   ~~~   ** Will be processed as Alpha=SP-FLOOR 1 OPERATING ROOM 2 SYS-3 FLR-3 SCH-H HPLCMT-EAST ZN NECB SYSTEM 3 PSZAVAILABILITY MANAGER LIST\n   ************* IDF Context for following error/warning message:\n   ************* Note -- lines truncated at 300 characters, if necessary...\n   *************  55930 AirLoopHVAC,\n   ************* indicated Name=Sp-Floor 1 Operating Room 3 Sys-3 Flr-3 Sch-H HPlcmt-core ZN NECB System 3 PSZ\n   ************* Only last 3 lines before error line shown.....\n   *************  55931   Sp-Floor 1 Operating Room 3 Sys-3 Flr-3 Sch-H HPlcmt-core ZN NECB System 3 PSZ, !- Name\n   *************  55932   ,                                       !- Controller List Name\n   *************  55933   Sp-Floor 1 Operating Room 3 Sys-3 Flr-3 Sch-H HPlcmt-core ZN NECB System 3 PSZAvailability Manager List, !- Availability Manager List Name\n   ** Warning ** IP: IDF line~55933 Alpha Argument length exceeds maximum, will be truncated=  Sp-Floor 1 Operating Room 3 Sys-3 Flr-3 Sch-H HPlcmt-core ZN NECB System 3 PSZAvailability Manager Lis\n   **   ~~~   ** Will be processed as Alpha=SP-FLOOR 1 OPERATING ROOM 3 SYS-3 FLR-3 SCH-H HPLCMT-CORE ZN NECB SYSTEM 3 PSZAVAILABILITY MANAGER LIST\n   ************* IDF Context for following error/warning message:\n   ************* Note -- lines truncated at 300 characters, if necessary...\n   *************  55989 AvailabilityManagerAssignmentList,\n   ************* indicated Name=Sp-Floor 1 Operating Room 3 Sys-3 Flr-3 Sch-H HPlcmt-core ZN NECB System 3 PSZAvailability Manager List\n   ************* Only last 1 lines before error line shown.....\n   *************  55990   Sp-Floor 1 Operating Room 3 Sys-3 Flr-3 Sch-H HPlcmt-core ZN NECB System 3 PSZAvailability Manager List, !- Name\n   ** Warning ** IP: IDF line~55990 Alpha Argument length exceeds maximum, will be truncated=  Sp-Floor 1 Operating Room 3 Sys-3 Flr-3 Sch-H HPlcmt-core ZN NECB System 3 PSZAvailability Manager Lis\n   **   ~~~   ** Will be processed as Alpha=SP-FLOOR 1 OPERATING ROOM 3 SYS-3 FLR-3 SCH-H HPLCMT-CORE ZN NECB SYSTEM 3 PSZAVAILABILITY MANAGER LIST\n   ************* IDF Context for following error/warning message:\n   ************* Note -- lines truncated at 300 characters, if necessary...\n   *************  57540 AirLoopHVAC,\n   ************* indicated Name=Sp-Floor 1 Procedure Room Sys-3 Flr-3 Sch-H HPlcmt-north ZN NECB System 3 PSZ\n   ************* Only last 3 lines before error line shown.....\n   *************  57541   Sp-Floor 1 Procedure Room Sys-3 Flr-3 Sch-H HPlcmt-north ZN NECB System 3 PSZ, !- Name\n   *************  57542   ,                                       !- Controller List Name\n   *************  57543   Sp-Floor 1 Procedure Room Sys-3 Flr-3 Sch-H HPlcmt-north ZN NECB System 3 PSZAvailability Manager List, !- Availability Manager List Name\n   ** Warning ** IP: IDF line~57543 Alpha Argument length exceeds maximum, will be truncated=  Sp-Floor 1 Procedure Room Sys-3 Flr-3 Sch-H HPlcmt-north ZN NECB System 3 PSZAvailability Manager Lis\n   **   ~~~   ** Will be processed as Alpha=SP-FLOOR 1 PROCEDURE ROOM SYS-3 FLR-3 SCH-H HPLCMT-NORTH ZN NECB SYSTEM 3 PSZAVAILABILITY MANAGER LIST\n   ************* IDF Context for following error/warning message:\n   ************* Note -- lines truncated at 300 characters, if necessary...\n   *************  57599 AvailabilityManagerAssignmentList,\n   ************* indicated Name=Sp-Floor 1 Procedure Room Sys-3 Flr-3 Sch-H HPlcmt-north ZN NECB System 3 PSZAvailability Manager List\n   ************* Only last 1 lines before error line shown.....\n   *************  57600   Sp-Floor 1 Procedure Room Sys-3 Flr-3 Sch-H HPlcmt-north ZN NECB System 3 PSZAvailability Manager List, !- Name\n   ** Warning ** IP: IDF line~57600 Alpha Argument length exceeds maximum, will be truncated=  Sp-Floor 1 Procedure Room Sys-3 Flr-3 Sch-H HPlcmt-north ZN NECB System 3 PSZAvailability Manager Lis\n   **   ~~~   ** Will be processed as Alpha=SP-FLOOR 1 PROCEDURE ROOM SYS-3 FLR-3 SCH-H HPLCMT-NORTH ZN NECB SYSTEM 3 PSZAVAILABILITY MANAGER LIST\n   ************* IDF Context for following error/warning message:\n   ************* Note -- lines truncated at 300 characters, if necessary...\n   *************  58184 AirLoopHVAC,\n   ************* indicated Name=Sp-Floor 1 Recovery Room Sys-3 Flr-3 Sch-H HPlcmt-south ZN NECB System 3 PSZ\n   ************* Only last 3 lines before error line shown.....\n   *************  58185   Sp-Floor 1 Recovery Room Sys-3 Flr-3 Sch-H HPlcmt-south ZN NECB System 3 PSZ, !- Name\n   *************  58186   ,                                       !- Controller List Name\n   *************  58187   Sp-Floor 1 Recovery Room Sys-3 Flr-3 Sch-H HPlcmt-south ZN NECB System 3 PSZAvailability Manager List, !- Availability Manager List Name\n   ** Warning ** IP: IDF line~58187 Alpha Argument length exceeds maximum, will be truncated=  Sp-Floor 1 Recovery Room Sys-3 Flr-3 Sch-H HPlcmt-south ZN NECB System 3 PSZAvailability Manager Lis\n   **   ~~~   ** Will be processed as Alpha=SP-FLOOR 1 RECOVERY ROOM SYS-3 FLR-3 SCH-H HPLCMT-SOUTH ZN NECB SYSTEM 3 PSZAVAILABILITY MANAGER LIST\n   ************* IDF Context for following error/warning message:\n   ************* Note -- lines truncated at 300 characters, if necessary...\n   *************  58243 AvailabilityManagerAssignmentList,\n   ************* indicated Name=Sp-Floor 1 Recovery Room Sys-3 Flr-3 Sch-H HPlcmt-south ZN NECB System 3 PSZAvailability Manager List\n   ************* Only last 1 lines before error line shown.....\n   *************  58244   Sp-Floor 1 Recovery Room Sys-3 Flr-3 Sch-H HPlcmt-south ZN NECB System 3 PSZAvailability Manager List, !- Name\n   ** Warning ** IP: IDF line~58244 Alpha Argument length exceeds maximum, will be truncated=  Sp-Floor 1 Recovery Room Sys-3 Flr-3 Sch-H HPlcmt-south ZN NECB System 3 PSZAvailability Manager Lis\n   **   ~~~   ** Will be processed as Alpha=SP-FLOOR 1 RECOVERY ROOM SYS-3 FLR-3 SCH-H HPLCMT-SOUTH ZN NECB SYSTEM 3 PSZAVAILABILITY MANAGER LIST\n   ************* IDF Context for following error/warning message:\n   ************* Note -- lines truncated at 300 characters, if necessary...\n   *************  60438 AirLoopHVAC,\n   ************* indicated Name=Sp-Floor 1 Sterile Storage Sys-4 Flr-3 Sch-E HPlcmt-core ZN NECB System 4 PSZ\n   ************* Only last 3 lines before error line shown.....\n   *************  60439   Sp-Floor 1 Sterile Storage Sys-4 Flr-3 Sch-E HPlcmt-core ZN NECB System 4 PSZ, !- Name\n   *************  60440   ,                                       !- Controller List Name\n   *************  60441   Sp-Floor 1 Sterile Storage Sys-4 Flr-3 Sch-E HPlcmt-core ZN NECB System 4 PSZAvailability Manager List, !- Availability Manager List Name\n   ** Warning ** IP: IDF line~60441 Alpha Argument length exceeds maximum, will be truncated=  Sp-Floor 1 Sterile Storage Sys-4 Flr-3 Sch-E HPlcmt-core ZN NECB System 4 PSZAvailability Manager Lis\n   **   ~~~   ** Will be processed as Alpha=SP-FLOOR 1 STERILE STORAGE SYS-4 FLR-3 SCH-E HPLCMT-CORE ZN NECB SYSTEM 4 PSZAVAILABILITY MANAGER LIST\n   ************* IDF Context for following error/warning message:\n   ************* Note -- lines truncated at 300 characters, if necessary...\n   *************  60497 AvailabilityManagerAssignmentList,\n   ************* indicated Name=Sp-Floor 1 Sterile Storage Sys-4 Flr-3 Sch-E HPlcmt-core ZN NECB System 4 PSZAvailability Manager List\n   ************* Only last 1 lines before error line shown.....\n   *************  60498   Sp-Floor 1 Sterile Storage Sys-4 Flr-3 Sch-E HPlcmt-core ZN NECB System 4 PSZAvailability Manager List, !- Name\n   ** Warning ** IP: IDF line~60498 Alpha Argument length exceeds maximum, will be truncated=  Sp-Floor 1 Sterile Storage Sys-4 Flr-3 Sch-E HPlcmt-core ZN NECB System 4 PSZAvailability Manager Lis\n   **   ~~~   ** Will be processed as Alpha=SP-FLOOR 1 STERILE STORAGE SYS-4 FLR-3 SCH-E HPLCMT-CORE ZN NECB SYSTEM 4 PSZAVAILABILITY MANAGER LIST\n   ************* IDF Context for following error/warning message:\n   ************* Note -- lines truncated at 300 characters, if necessary...\n   *************  61726 AirLoopHVAC,\n   ************* indicated Name=Sp-Floor 1 Utility Janitor Sys-4 Flr-3 Sch-E HPlcmt-core ZN NECB System 4 PSZ\n   ************* Only last 3 lines before error line shown.....\n   *************  61727   Sp-Floor 1 Utility Janitor Sys-4 Flr-3 Sch-E HPlcmt-core ZN NECB System 4 PSZ, !- Name\n   *************  61728   ,                                       !- Controller List Name\n   *************  61729   Sp-Floor 1 Utility Janitor Sys-4 Flr-3 Sch-E HPlcmt-core ZN NECB System 4 PSZAvailability Manager List, !- Availability Manager List Name\n   ** Warning ** IP: IDF line~61729 Alpha Argument length exceeds maximum, will be truncated=  Sp-Floor 1 Utility Janitor Sys-4 Flr-3 Sch-E HPlcmt-core ZN NECB System 4 PSZAvailability Manager Lis\n   **   ~~~   ** Will be processed as Alpha=SP-FLOOR 1 UTILITY JANITOR SYS-4 FLR-3 SCH-E HPLCMT-CORE ZN NECB SYSTEM 4 PSZAVAILABILITY MANAGER LIST\n   ************* IDF Context for following error/warning message:\n   ************* Note -- lines truncated at 300 characters, if necessary...\n   *************  61785 AvailabilityManagerAssignmentList,\n   ************* indicated Name=Sp-Floor 1 Utility Janitor Sys-4 Flr-3 Sch-E HPlcmt-core ZN NECB System 4 PSZAvailability Manager List\n   ************* Only last 1 lines before error line shown.....\n   *************  61786   Sp-Floor 1 Utility Janitor Sys-4 Flr-3 Sch-E HPlcmt-core ZN NECB System 4 PSZAvailability Manager List, !- Name\n   ** Warning ** IP: IDF line~61786 Alpha Argument length exceeds maximum, will be truncated=  Sp-Floor 1 Utility Janitor Sys-4 Flr-3 Sch-E HPlcmt-core ZN NECB System 4 PSZAvailability Manager Lis\n   **   ~~~   ** Will be processed as Alpha=SP-FLOOR 1 UTILITY JANITOR SYS-4 FLR-3 SCH-E HPLCMT-CORE ZN NECB SYSTEM 4 PSZAVAILABILITY MANAGER LIST\n   ************* IDF Context for following error/warning message:\n   ************* Note -- lines truncated at 300 characters, if necessary...\n   *************  63014 AirLoopHVAC,\n   ************* indicated Name=Sp-Floor 2 Conference Toilet Sys-4 Flr-1 Sch-H HPlcmt-core ZN NECB System 4 PSZ\n   ************* Only last 3 lines before error line shown.....\n   *************  63015   Sp-Floor 2 Conference Toilet Sys-4 Flr-1 Sch-H HPlcmt-core ZN NECB System 4 PSZ, !- Name\n   *************  63016   ,                                       !- Controller List Name\n   *************  63017   Sp-Floor 2 Conference Toilet Sys-4 Flr-1 Sch-H HPlcmt-core ZN NECB System 4 PSZAvailability Manager List, !- Availability Manager List Name\n   ** Warning ** IP: IDF line~63017 Alpha Argument length exceeds maximum, will be truncated=  Sp-Floor 2 Conference Toilet Sys-4 Flr-1 Sch-H HPlcmt-core ZN NECB System 4 PSZAvailability Manager Lis\n   **   ~~~   ** Will be processed as Alpha=SP-FLOOR 2 CONFERENCE TOILET SYS-4 FLR-1 SCH-H HPLCMT-CORE ZN NECB SYSTEM 4 PSZAVAILABILITY MANAGER LIST\n   ************* IDF Context for following error/warning message:\n   ************* Note -- lines truncated at 300 characters, if necessary...\n   *************  63073 AvailabilityManagerAssignmentList,\n   ************* indicated Name=Sp-Floor 2 Conference Toilet Sys-4 Flr-1 Sch-H HPlcmt-core ZN NECB System 4 PSZAvailability Manager List\n   ************* Only last 1 lines before error line shown.....\n   *************  63074   Sp-Floor 2 Conference Toilet Sys-4 Flr-1 Sch-H HPlcmt-core ZN NECB System 4 PSZAvailability Manager List, !- Name\n   ** Warning ** IP: IDF line~63074 Alpha Argument length exceeds maximum, will be truncated=  Sp-Floor 2 Conference Toilet Sys-4 Flr-1 Sch-H HPlcmt-core ZN NECB System 4 PSZAvailability Manager Lis\n   **   ~~~   ** Will be processed as Alpha=SP-FLOOR 2 CONFERENCE TOILET SYS-4 FLR-1 SCH-H HPLCMT-CORE ZN NECB SYSTEM 4 PSZAVAILABILITY MANAGER LIST\n   ************* IDF Context for following error/warning message:\n   ************* Note -- lines truncated at 300 characters, if necessary...\n   *************  68810 AirLoopHVAC,\n   ************* indicated Name=Sp-Floor 2 Nurse Station 1 Sys-3 Flr-1 Sch-H HPlcmt-core ZN NECB System 3 PSZ\n   ************* Only last 3 lines before error line shown.....\n   *************  68811   Sp-Floor 2 Nurse Station 1 Sys-3 Flr-1 Sch-H HPlcmt-core ZN NECB System 3 PSZ, !- Name\n   *************  68812   ,                                       !- Controller List Name\n   *************  68813   Sp-Floor 2 Nurse Station 1 Sys-3 Flr-1 Sch-H HPlcmt-core ZN NECB System 3 PSZAvailability Manager List, !- Availability Manager List Name\n   ** Warning ** IP: IDF line~68813 Alpha Argument length exceeds maximum, will be truncated=  Sp-Floor 2 Nurse Station 1 Sys-3 Flr-1 Sch-H HPlcmt-core ZN NECB System 3 PSZAvailability Manager Lis\n   **   ~~~   ** Will be processed as Alpha=SP-FLOOR 2 NURSE STATION 1 SYS-3 FLR-1 SCH-H HPLCMT-CORE ZN NECB SYSTEM 3 PSZAVAILABILITY MANAGER LIST\n   ************* IDF Context for following error/warning message:\n   ************* Note -- lines truncated at 300 characters, if necessary...\n   *************  68869 AvailabilityManagerAssignmentList,\n   ************* indicated Name=Sp-Floor 2 Nurse Station 1 Sys-3 Flr-1 Sch-H HPlcmt-core ZN NECB System 3 PSZAvailability Manager List\n   ************* Only last 1 lines before error line shown.....\n   *************  68870   Sp-Floor 2 Nurse Station 1 Sys-3 Flr-1 Sch-H HPlcmt-core ZN NECB System 3 PSZAvailability Manager List, !- Name\n   ** Warning ** IP: IDF line~68870 Alpha Argument length exceeds maximum, will be truncated=  Sp-Floor 2 Nurse Station 1 Sys-3 Flr-1 Sch-H HPlcmt-core ZN NECB System 3 PSZAvailability Manager Lis\n   **   ~~~   ** Will be processed as Alpha=SP-FLOOR 2 NURSE STATION 1 SYS-3 FLR-1 SCH-H HPLCMT-CORE ZN NECB SYSTEM 3 PSZAVAILABILITY MANAGER LIST\n   ************* IDF Context for following error/warning message:\n   ************* Note -- lines truncated at 300 characters, if necessary...\n   *************  69132 AirLoopHVAC,\n   ************* indicated Name=Sp-Floor 2 Nurse Station 2 Sys-3 Flr-1 Sch-H HPlcmt-core ZN NECB System 3 PSZ\n   ************* Only last 3 lines before error line shown.....\n   *************  69133   Sp-Floor 2 Nurse Station 2 Sys-3 Flr-1 Sch-H HPlcmt-core ZN NECB System 3 PSZ, !- Name\n   *************  69134   ,                                       !- Controller List Name\n   *************  69135   Sp-Floor 2 Nurse Station 2 Sys-3 Flr-1 Sch-H HPlcmt-core ZN NECB System 3 PSZAvailability Manager List, !- Availability Manager List Name\n   ** Warning ** IP: IDF line~69135 Alpha Argument length exceeds maximum, will be truncated=  Sp-Floor 2 Nurse Station 2 Sys-3 Flr-1 Sch-H HPlcmt-core ZN NECB System 3 PSZAvailability Manager Lis\n   **   ~~~   ** Will be processed as Alpha=SP-FLOOR 2 NURSE STATION 2 SYS-3 FLR-1 SCH-H HPLCMT-CORE ZN NECB SYSTEM 3 PSZAVAILABILITY MANAGER LIST\n   ************* IDF Context for following error/warning message:\n   ************* Note -- lines truncated at 300 characters, if necessary...\n   *************  69191 AvailabilityManagerAssignmentList,\n   ************* indicated Name=Sp-Floor 2 Nurse Station 2 Sys-3 Flr-1 Sch-H HPlcmt-core ZN NECB System 3 PSZAvailability Manager List\n   ************* Only last 1 lines before error line shown.....\n   *************  69192   Sp-Floor 2 Nurse Station 2 Sys-3 Flr-1 Sch-H HPlcmt-core ZN NECB System 3 PSZAvailability Manager List, !- Name\n   ** Warning ** IP: IDF line~69192 Alpha Argument length exceeds maximum, will be truncated=  Sp-Floor 2 Nurse Station 2 Sys-3 Flr-1 Sch-H HPlcmt-core ZN NECB System 3 PSZAvailability Manager Lis\n   **   ~~~   ** Will be processed as Alpha=SP-FLOOR 2 NURSE STATION 2 SYS-3 FLR-1 SCH-H HPLCMT-CORE ZN NECB SYSTEM 3 PSZAVAILABILITY MANAGER LIST\n   ************* IDF Context for following error/warning message:\n   ************* Note -- lines truncated at 300 characters, if necessary...\n   *************  69454 AirLoopHVAC,\n   ************* indicated Name=Sp-Floor 2 Reception Hall Sys-3 Flr-1 Sch-H HPlcmt-south ZN NECB System 3 PSZ\n   ************* Only last 3 lines before error line shown.....\n   *************  69455   Sp-Floor 2 Reception Hall Sys-3 Flr-1 Sch-H HPlcmt-south ZN NECB System 3 PSZ, !- Name\n   *************  69456   ,                                       !- Controller List Name\n   *************  69457   Sp-Floor 2 Reception Hall Sys-3 Flr-1 Sch-H HPlcmt-south ZN NECB System 3 PSZAvailability Manager List, !- Availability Manager List Name\n   ** Warning ** IP: IDF line~69457 Alpha Argument length exceeds maximum, will be truncated=  Sp-Floor 2 Reception Hall Sys-3 Flr-1 Sch-H HPlcmt-south ZN NECB System 3 PSZAvailability Manager Lis\n   **   ~~~   ** Will be processed as Alpha=SP-FLOOR 2 RECEPTION HALL SYS-3 FLR-1 SCH-H HPLCMT-SOUTH ZN NECB SYSTEM 3 PSZAVAILABILITY MANAGER LIST\n   ************* IDF Context for following error/warning message:\n   ************* Note -- lines truncated at 300 characters, if necessary...\n   *************  69513 AvailabilityManagerAssignmentList,\n   ************* indicated Name=Sp-Floor 2 Reception Hall Sys-3 Flr-1 Sch-H HPlcmt-south ZN NECB System 3 PSZAvailability Manager List\n   ************* Only last 1 lines before error line shown.....\n   *************  69514   Sp-Floor 2 Reception Hall Sys-3 Flr-1 Sch-H HPlcmt-south ZN NECB System 3 PSZAvailability Manager List, !- Name\n   ** Warning ** IP: IDF line~69514 Alpha Argument length exceeds maximum, will be truncated=  Sp-Floor 2 Reception Hall Sys-3 Flr-1 Sch-H HPlcmt-south ZN NECB System 3 PSZAvailability Manager Lis\n   **   ~~~   ** Will be processed as Alpha=SP-FLOOR 2 RECEPTION HALL SYS-3 FLR-1 SCH-H HPLCMT-SOUTH ZN NECB SYSTEM 3 PSZAVAILABILITY MANAGER LIST\n   ************* IDF Context for following error/warning message:\n   ************* Note -- lines truncated at 300 characters, if necessary...\n   *************  72674 AirLoopHVAC,\n   ************* indicated Name=Sp-Floor 3 Mechanical Hall Sys-3 Flr-2 Sch-H HPlcmt-core ZN NECB System 3 PSZ\n   ************* Only last 3 lines before error line shown.....\n   *************  72675   Sp-Floor 3 Mechanical Hall Sys-3 Flr-2 Sch-H HPlcmt-core ZN NECB System 3 PSZ, !- Name\n   *************  72676   ,                                       !- Controller List Name\n   *************  72677   Sp-Floor 3 Mechanical Hall Sys-3 Flr-2 Sch-H HPlcmt-core ZN NECB System 3 PSZAvailability Manager List, !- Availability Manager List Name\n   ** Warning ** IP: IDF line~72677 Alpha Argument length exceeds maximum, will be truncated=  Sp-Floor 3 Mechanical Hall Sys-3 Flr-2 Sch-H HPlcmt-core ZN NECB System 3 PSZAvailability Manager Lis\n   **   ~~~   ** Will be processed as Alpha=SP-FLOOR 3 MECHANICAL HALL SYS-3 FLR-2 SCH-H HPLCMT-CORE ZN NECB SYSTEM 3 PSZAVAILABILITY MANAGER LIST\n   ************* IDF Context for following error/warning message:\n   ************* Note -- lines truncated at 300 characters, if necessary...\n   *************  72733 AvailabilityManagerAssignmentList,\n   ************* indicated Name=Sp-Floor 3 Mechanical Hall Sys-3 Flr-2 Sch-H HPlcmt-core ZN NECB System 3 PSZAvailability Manager List\n   ************* Only last 1 lines before error line shown.....\n   *************  72734   Sp-Floor 3 Mechanical Hall Sys-3 Flr-2 Sch-H HPlcmt-core ZN NECB System 3 PSZAvailability Manager List, !- Name\n   ** Warning ** IP: IDF line~72734 Alpha Argument length exceeds maximum, will be truncated=  Sp-Floor 3 Mechanical Hall Sys-3 Flr-2 Sch-H HPlcmt-core ZN NECB System 3 PSZAvailability Manager Lis\n   **   ~~~   ** Will be processed as Alpha=SP-FLOOR 3 MECHANICAL HALL SYS-3 FLR-2 SCH-H HPLCMT-CORE ZN NECB SYSTEM 3 PSZAVAILABILITY MANAGER LIST\n   ************* IDF Context for following error/warning message:\n   ************* Note -- lines truncated at 300 characters, if necessary...\n   *************  73640 AirLoopHVAC,\n   ************* indicated Name=Sp-Floor 3 Physical Therapy 1 Sys-3 Flr-2 Sch-C HPlcmt-south ZN NECB System 3 PSZ\n   ************* Only last 3 lines before error line shown.....\n   *************  73641   Sp-Floor 3 Physical Therapy 1 Sys-3 Flr-2 Sch-C HPlcmt-south ZN NECB System 3 PSZ, !- Name\n   *************  73642   ,                                       !- Controller List Name\n   *************  73643   Sp-Floor 3 Physical Therapy 1 Sys-3 Flr-2 Sch-C HPlcmt-south ZN NECB System 3 PSZAvailability Manager List, !- Availability Manager List Name\n   ** Warning ** IP: IDF line~73643 Alpha Argument length exceeds maximum, will be truncated=  Sp-Floor 3 Physical Therapy 1 Sys-3 Flr-2 Sch-C HPlcmt-south ZN NECB System 3 PSZAvailability Manager Lis\n   **   ~~~   ** Will be processed as Alpha=SP-FLOOR 3 PHYSICAL THERAPY 1 SYS-3 FLR-2 SCH-C HPLCMT-SOUTH ZN NECB SYSTEM 3 PSZAVAILABILITY MANAGER LIST\n   ************* IDF Context for following error/warning message:\n   ************* Note -- lines truncated at 300 characters, if necessary...\n   *************  73640 AirLoopHVAC,\n   ************* indicated Name=Sp-Floor 3 Physical Therapy 1 Sys-3 Flr-2 Sch-C HPlcmt-south ZN NECB System 3 PSZ\n   ************* Only last 10 lines before error line shown.....\n   *************  73641   Sp-Floor 3 Physical Therapy 1 Sys-3 Flr-2 Sch-C HPlcmt-south ZN NECB System 3 PSZ, !- Name\n   *************  73642   ,                                       !- Controller List Name\n   *************  73643   Sp-Floor 3 Physical Therapy 1 Sys-3 Flr-2 Sch-C HPlcmt-south ZN NECB System 3 PSZAvailability Manager List, !- Availability Manager List Name\n   *************  73644   AutoSize,                               !- Design Supply Air Flow Rate {m3/s}\n   *************  73645   Sp-Floor 3 Physical Therapy 1 Sys-3 Flr-2 Sch-C HPlcmt-south ZN NECB System 3 PSZ Supply Branches, !- Branch List Name\n   *************  73646   ,                                       !- Connector List Name\n   *************  73647   Node 361,                               !- Supply Side Inlet Node Name\n   *************  73648   Node 364,                               !- Demand Side Outlet Node Name\n   *************  73649   Sp-Floor 3 Physical Therapy 1 Sys-3 Flr-2 Sch-C HPlcmt-south ZN NECB System 3 PSZ Demand Inlet Nodes, !- Demand Side Inlet Node Names\n   *************  73650   Sp-Floor 3 Physical Therapy 1 Sys-3 Flr-2 Sch-C HPlcmt-south ZN NECB System 3 PSZ Supply Outlet Nodes; !- Supply Side Outlet Node Names\n   ** Warning ** IP: IDF line~73650 Alpha Argument length exceeds maximum, will be truncated=  Sp-Floor 3 Physical Therapy 1 Sys-3 Flr-2 Sch-C HPlcmt-south ZN NECB System 3 PSZ Supply Outlet Node\n   **   ~~~   ** Will be processed as Alpha=SP-FLOOR 3 PHYSICAL THERAPY 1 SYS-3 FLR-2 SCH-C HPLCMT-SOUTH ZN NECB SYSTEM 3 PSZ SUPPLY OUTLET NODES\n   ************* IDF Context for following error/warning message:\n   ************* Note -- lines truncated at 300 characters, if necessary...\n   *************  73652 NodeList,\n   ************* indicated Name=Sp-Floor 3 Physical Therapy 1 Sys-3 Flr-2 Sch-C HPlcmt-south ZN NECB System 3 PSZ Supply Outlet Nodes\n   ************* Only last 1 lines before error line shown.....\n   *************  73653   Sp-Floor 3 Physical Therapy 1 Sys-3 Flr-2 Sch-C HPlcmt-south ZN NECB System 3 PSZ Supply Outlet Nodes, !- Name\n   ** Warning ** IP: IDF line~73653 Alpha Argument length exceeds maximum, will be truncated=  Sp-Floor 3 Physical Therapy 1 Sys-3 Flr-2 Sch-C HPlcmt-south ZN NECB System 3 PSZ Supply Outlet Node\n   **   ~~~   ** Will be processed as Alpha=SP-FLOOR 3 PHYSICAL THERAPY 1 SYS-3 FLR-2 SCH-C HPLCMT-SOUTH ZN NECB SYSTEM 3 PSZ SUPPLY OUTLET NODES\n   ************* IDF Context for following error/warning message:\n   ************* Note -- lines truncated at 300 characters, if necessary...\n   *************  73699 AvailabilityManagerAssignmentList,\n   ************* indicated Name=Sp-Floor 3 Physical Therapy 1 Sys-3 Flr-2 Sch-C HPlcmt-south ZN NECB System 3 PSZAvailability Manager List\n   ************* Only last 1 lines before error line shown.....\n   *************  73700   Sp-Floor 3 Physical Therapy 1 Sys-3 Flr-2 Sch-C HPlcmt-south ZN NECB System 3 PSZAvailability Manager List, !- Name\n   ** Warning ** IP: IDF line~73700 Alpha Argument length exceeds maximum, will be truncated=  Sp-Floor 3 Physical Therapy 1 Sys-3 Flr-2 Sch-C HPlcmt-south ZN NECB System 3 PSZAvailability Manager Lis\n   **   ~~~   ** Will be processed as Alpha=SP-FLOOR 3 PHYSICAL THERAPY 1 SYS-3 FLR-2 SCH-C HPLCMT-SOUTH ZN NECB SYSTEM 3 PSZAVAILABILITY MANAGER LIST\n   ************* IDF Context for following error/warning message:\n   ************* Note -- lines truncated at 300 characters, if necessary...\n   *************  73944 AirLoopHVAC:SupplyPath,\n   ************* indicated Name=Sp-Floor 3 Physical Therapy 1 Sys-3 Flr-2 Sch-C HPlcmt-south ZN NECB System 3 PSZ Node 363 Supply Path\n   ************* Only last 1 lines before error line shown.....\n   *************  73945   Sp-Floor 3 Physical Therapy 1 Sys-3 Flr-2 Sch-C HPlcmt-south ZN NECB System 3 PSZ Node 363 Supply Path, !- Name\n   ** Warning ** IP: IDF line~73945 Alpha Argument length exceeds maximum, will be truncated=  Sp-Floor 3 Physical Therapy 1 Sys-3 Flr-2 Sch-C HPlcmt-south ZN NECB System 3 PSZ Node 363 Supply Pat\n   **   ~~~   ** Will be processed as Alpha=SP-FLOOR 3 PHYSICAL THERAPY 1 SYS-3 FLR-2 SCH-C HPLCMT-SOUTH ZN NECB SYSTEM 3 PSZ NODE 363 SUPPLY PATH\n   ************* IDF Context for following error/warning message:\n   ************* Note -- lines truncated at 300 characters, if necessary...\n   *************  73966 AirLoopHVAC,\n   ************* indicated Name=Sp-Floor 3 Physical Therapy 2 Sys-3 Flr-2 Sch-C HPlcmt-core ZN NECB System 3 PSZ\n   ************* Only last 3 lines before error line shown.....\n   *************  73967   Sp-Floor 3 Physical Therapy 2 Sys-3 Flr-2 Sch-C HPlcmt-core ZN NECB System 3 PSZ, !- Name\n   *************  73968   ,                                       !- Controller List Name\n   *************  73969   Sp-Floor 3 Physical Therapy 2 Sys-3 Flr-2 Sch-C HPlcmt-core ZN NECB System 3 PSZAvailability Manager List, !- Availability Manager List Name\n   ** Warning ** IP: IDF line~73969 Alpha Argument length exceeds maximum, will be truncated=  Sp-Floor 3 Physical Therapy 2 Sys-3 Flr-2 Sch-C HPlcmt-core ZN NECB System 3 PSZAvailability Manager Lis\n   **   ~~~   ** Will be processed as Alpha=SP-FLOOR 3 PHYSICAL THERAPY 2 SYS-3 FLR-2 SCH-C HPLCMT-CORE ZN NECB SYSTEM 3 PSZAVAILABILITY MANAGER LIST\n   ************* IDF Context for following error/warning message:\n   ************* Note -- lines truncated at 300 characters, if necessary...\n   *************  74025 AvailabilityManagerAssignmentList,\n   ************* indicated Name=Sp-Floor 3 Physical Therapy 2 Sys-3 Flr-2 Sch-C HPlcmt-core ZN NECB System 3 PSZAvailability Manager List\n   ************* Only last 1 lines before error line shown.....\n   *************  74026   Sp-Floor 3 Physical Therapy 2 Sys-3 Flr-2 Sch-C HPlcmt-core ZN NECB System 3 PSZAvailability Manager List, !- Name\n   ** Warning ** IP: IDF line~74026 Alpha Argument length exceeds maximum, will be truncated=  Sp-Floor 3 Physical Therapy 2 Sys-3 Flr-2 Sch-C HPlcmt-core ZN NECB System 3 PSZAvailability Manager Lis\n   **   ~~~   ** Will be processed as Alpha=SP-FLOOR 3 PHYSICAL THERAPY 2 SYS-3 FLR-2 SCH-C HPLCMT-CORE ZN NECB SYSTEM 3 PSZAVAILABILITY MANAGER LIST\n   ************* IDF Context for following error/warning message:\n   ************* Note -- lines truncated at 300 characters, if necessary...\n   *************  74025 AvailabilityManagerAssignmentList,\n   ************* indicated Name=Sp-Floor 3 Physical Therapy 2 Sys-3 Flr-2 Sch-C HPlcmt-core ZN NECB System 3 PSZAvailability Manager List\n   ************* Only last 3 lines before error line shown.....\n   *************  74026   Sp-Floor 3 Physical Therapy 2 Sys-3 Flr-2 Sch-C HPlcmt-core ZN NECB System 3 PSZAvailability Manager List, !- Name\n   *************  74027   AvailabilityManager:Scheduled,          !- Availability Manager Object Type 1\n   *************  74028   Sp-Floor 3 Physical Therapy 2 Sys-3 Flr-2 Sch-C HPlcmt-core ZN NECB System 3 PSZ Availability Manager; !- Availability Manager Name 1\n   ** Warning ** IP: IDF line~74028 Alpha Argument length exceeds maximum, will be truncated=  Sp-Floor 3 Physical Therapy 2 Sys-3 Flr-2 Sch-C HPlcmt-core ZN NECB System 3 PSZ Availability Manage\n   **   ~~~   ** Will be processed as Alpha=SP-FLOOR 3 PHYSICAL THERAPY 2 SYS-3 FLR-2 SCH-C HPLCMT-CORE ZN NECB SYSTEM 3 PSZ AVAILABILITY MANAGER\n   ************* IDF Context for following error/warning message:\n   ************* Note -- lines truncated at 300 characters, if necessary...\n   *************  74030 AvailabilityManager:Scheduled,\n   ************* indicated Name=Sp-Floor 3 Physical Therapy 2 Sys-3 Flr-2 Sch-C HPlcmt-core ZN NECB System 3 PSZ Availability Manager\n   ************* Only last 1 lines before error line shown.....\n   *************  74031   Sp-Floor 3 Physical Therapy 2 Sys-3 Flr-2 Sch-C HPlcmt-core ZN NECB System 3 PSZ Availability Manager, !- Name\n   ** Warning ** IP: IDF line~74031 Alpha Argument length exceeds maximum, will be truncated=  Sp-Floor 3 Physical Therapy 2 Sys-3 Flr-2 Sch-C HPlcmt-core ZN NECB System 3 PSZ Availability Manage\n   **   ~~~   ** Will be processed as Alpha=SP-FLOOR 3 PHYSICAL THERAPY 2 SYS-3 FLR-2 SCH-C HPLCMT-CORE ZN NECB SYSTEM 3 PSZ AVAILABILITY MANAGER\n   ************* IDF Context for following error/warning message:\n   ************* Note -- lines truncated at 300 characters, if necessary...\n   *************  74266 AirLoopHVAC:SupplyPath,\n   ************* indicated Name=Sp-Floor 3 Physical Therapy 2 Sys-3 Flr-2 Sch-C HPlcmt-core ZN NECB System 3 PSZ Node 374 Supply Path\n   ************* Only last 1 lines before error line shown.....\n   *************  74267   Sp-Floor 3 Physical Therapy 2 Sys-3 Flr-2 Sch-C HPlcmt-core ZN NECB System 3 PSZ Node 374 Supply Path, !- Name\n   ** Warning ** IP: IDF line~74267 Alpha Argument length exceeds maximum, will be truncated=  Sp-Floor 3 Physical Therapy 2 Sys-3 Flr-2 Sch-C HPlcmt-core ZN NECB System 3 PSZ Node 374 Supply Pat\n   **   ~~~   ** Will be processed as Alpha=SP-FLOOR 3 PHYSICAL THERAPY 2 SYS-3 FLR-2 SCH-C HPLCMT-CORE ZN NECB SYSTEM 3 PSZ NODE 374 SUPPLY PATH\n   ************* IDF Context for following error/warning message:\n   ************* Note -- lines truncated at 300 characters, if necessary...\n   *************  74288 AirLoopHVAC,\n   ************* indicated Name=Sp-Floor 3 Physical Therapy Toilet Sys-4 Flr-2 Sch-H HPlcmt-core ZN NECB System 4 PSZ\n   ************* Only last 3 lines before error line shown.....\n   *************  74289   Sp-Floor 3 Physical Therapy Toilet Sys-4 Flr-2 Sch-H HPlcmt-core ZN NECB System 4 PSZ, !- Name\n   *************  74290   ,                                       !- Controller List Name\n   *************  74291   Sp-Floor 3 Physical Therapy Toilet Sys-4 Flr-2 Sch-H HPlcmt-core ZN NECB System 4 PSZAvailability Manager List, !- Availability Manager List Name\n   ** Warning ** IP: IDF line~74291 Alpha Argument length exceeds maximum, will be truncated=  Sp-Floor 3 Physical Therapy Toilet Sys-4 Flr-2 Sch-H HPlcmt-core ZN NECB System 4 PSZAvailability Manager Lis\n   **   ~~~   ** Will be processed as Alpha=SP-FLOOR 3 PHYSICAL THERAPY TOILET SYS-4 FLR-2 SCH-H HPLCMT-CORE ZN NECB SYSTEM 4 PSZAVAILABILITY MANAGER LIST\n   ************* IDF Context for following error/warning message:\n   ************* Note -- lines truncated at 300 characters, if necessary...\n   *************  74288 AirLoopHVAC,\n   ************* indicated Name=Sp-Floor 3 Physical Therapy Toilet Sys-4 Flr-2 Sch-H HPlcmt-core ZN NECB System 4 PSZ\n   ************* Only last 5 lines before error line shown.....\n   *************  74289   Sp-Floor 3 Physical Therapy Toilet Sys-4 Flr-2 Sch-H HPlcmt-core ZN NECB System 4 PSZ, !- Name\n   *************  74290   ,                                       !- Controller List Name\n   *************  74291   Sp-Floor 3 Physical Therapy Toilet Sys-4 Flr-2 Sch-H HPlcmt-core ZN NECB System 4 PSZAvailability Manager List, !- Availability Manager List Name\n   *************  74292   AutoSize,                               !- Design Supply Air Flow Rate {m3/s}\n   *************  74293   Sp-Floor 3 Physical Therapy Toilet Sys-4 Flr-2 Sch-H HPlcmt-core ZN NECB System 4 PSZ Supply Branches, !- Branch List Name\n   ** Warning ** IP: IDF line~74293 Alpha Argument length exceeds maximum, will be truncated=  Sp-Floor 3 Physical Therapy Toilet Sys-4 Flr-2 Sch-H HPlcmt-core ZN NECB System 4 PSZ Supply Branche\n   **   ~~~   ** Will be processed as Alpha=SP-FLOOR 3 PHYSICAL THERAPY TOILET SYS-4 FLR-2 SCH-H HPLCMT-CORE ZN NECB SYSTEM 4 PSZ SUPPLY BRANCHES\n   ************* IDF Context for following error/warning message:\n   ************* Note -- lines truncated at 300 characters, if necessary...\n   *************  74288 AirLoopHVAC,\n   ************* indicated Name=Sp-Floor 3 Physical Therapy Toilet Sys-4 Flr-2 Sch-H HPlcmt-core ZN NECB System 4 PSZ\n   ************* Only last 9 lines before error line shown.....\n   *************  74289   Sp-Floor 3 Physical Therapy Toilet Sys-4 Flr-2 Sch-H HPlcmt-core ZN NECB System 4 PSZ, !- Name\n   *************  74290   ,                                       !- Controller List Name\n   *************  74291   Sp-Floor 3 Physical Therapy Toilet Sys-4 Flr-2 Sch-H HPlcmt-core ZN NECB System 4 PSZAvailability Manager List, !- Availability Manager List Name\n   *************  74292   AutoSize,                               !- Design Supply Air Flow Rate {m3/s}\n   *************  74293   Sp-Floor 3 Physical Therapy Toilet Sys-4 Flr-2 Sch-H HPlcmt-core ZN NECB System 4 PSZ Supply Branches, !- Branch List Name\n   *************  74294   ,                                       !- Connector List Name\n   *************  74295   Node 922,                               !- Supply Side Inlet Node Name\n   *************  74296   Node 925,                               !- Demand Side Outlet Node Name\n   *************  74297   Sp-Floor 3 Physical Therapy Toilet Sys-4 Flr-2 Sch-H HPlcmt-core ZN NECB System 4 PSZ Demand Inlet Nodes, !- Demand Side Inlet Node Names\n   ** Warning ** IP: IDF line~74297 Alpha Argument length exceeds maximum, will be truncated=  Sp-Floor 3 Physical Therapy Toilet Sys-4 Flr-2 Sch-H HPlcmt-core ZN NECB System 4 PSZ Demand Inlet Node\n   **   ~~~   ** Will be processed as Alpha=SP-FLOOR 3 PHYSICAL THERAPY TOILET SYS-4 FLR-2 SCH-H HPLCMT-CORE ZN NECB SYSTEM 4 PSZ DEMAND INLET NODES\n   ************* IDF Context for following error/warning message:\n   ************* Note -- lines truncated at 300 characters, if necessary...\n   *************  74288 AirLoopHVAC,\n   ************* indicated Name=Sp-Floor 3 Physical Therapy Toilet Sys-4 Flr-2 Sch-H HPlcmt-core ZN NECB System 4 PSZ\n   ************* Only last 10 lines before error line shown.....\n   *************  74289   Sp-Floor 3 Physical Therapy Toilet Sys-4 Flr-2 Sch-H HPlcmt-core ZN NECB System 4 PSZ, !- Name\n   *************  74290   ,                                       !- Controller List Name\n   *************  74291   Sp-Floor 3 Physical Therapy Toilet Sys-4 Flr-2 Sch-H HPlcmt-core ZN NECB System 4 PSZAvailability Manager List, !- Availability Manager List Name\n   *************  74292   AutoSize,                               !- Design Supply Air Flow Rate {m3/s}\n   *************  74293   Sp-Floor 3 Physical Therapy Toilet Sys-4 Flr-2 Sch-H HPlcmt-core ZN NECB System 4 PSZ Supply Branches, !- Branch List Name\n   *************  74294   ,                                       !- Connector List Name\n   *************  74295   Node 922,                               !- Supply Side Inlet Node Name\n   *************  74296   Node 925,                               !- Demand Side Outlet Node Name\n   *************  74297   Sp-Floor 3 Physical Therapy Toilet Sys-4 Flr-2 Sch-H HPlcmt-core ZN NECB System 4 PSZ Demand Inlet Nodes, !- Demand Side Inlet Node Names\n   *************  74298   Sp-Floor 3 Physical Therapy Toilet Sys-4 Flr-2 Sch-H HPlcmt-core ZN NECB System 4 PSZ Supply Outlet Nodes; !- Supply Side Outlet Node Names\n   ** Warning ** IP: IDF line~74298 Alpha Argument length exceeds maximum, will be truncated=  Sp-Floor 3 Physical Therapy Toilet Sys-4 Flr-2 Sch-H HPlcmt-core ZN NECB System 4 PSZ Supply Outlet Node\n   **   ~~~   ** Will be processed as Alpha=SP-FLOOR 3 PHYSICAL THERAPY TOILET SYS-4 FLR-2 SCH-H HPLCMT-CORE ZN NECB SYSTEM 4 PSZ SUPPLY OUTLET NODES\n   ************* IDF Context for following error/warning message:\n   ************* Note -- lines truncated at 300 characters, if necessary...\n   *************  74300 NodeList,\n   ************* indicated Name=Sp-Floor 3 Physical Therapy Toilet Sys-4 Flr-2 Sch-H HPlcmt-core ZN NECB System 4 PSZ Supply Outlet Nodes\n   ************* Only last 1 lines before error line shown.....\n   *************  74301   Sp-Floor 3 Physical Therapy Toilet Sys-4 Flr-2 Sch-H HPlcmt-core ZN NECB System 4 PSZ Supply Outlet Nodes, !- Name\n   ** Warning ** IP: IDF line~74301 Alpha Argument length exceeds maximum, will be truncated=  Sp-Floor 3 Physical Therapy Toilet Sys-4 Flr-2 Sch-H HPlcmt-core ZN NECB System 4 PSZ Supply Outlet Node\n   **   ~~~   ** Will be processed as Alpha=SP-FLOOR 3 PHYSICAL THERAPY TOILET SYS-4 FLR-2 SCH-H HPLCMT-CORE ZN NECB SYSTEM 4 PSZ SUPPLY OUTLET NODES\n   ************* IDF Context for following error/warning message:\n   ************* Note -- lines truncated at 300 characters, if necessary...\n   *************  74304 NodeList,\n   ************* indicated Name=Sp-Floor 3 Physical Therapy Toilet Sys-4 Flr-2 Sch-H HPlcmt-core ZN NECB System 4 PSZ Demand Inlet Nodes\n   ************* Only last 1 lines before error line shown.....\n   *************  74305   Sp-Floor 3 Physical Therapy Toilet Sys-4 Flr-2 Sch-H HPlcmt-core ZN NECB System 4 PSZ Demand Inlet Nodes, !- Name\n   ** Warning ** IP: IDF line~74305 Alpha Argument length exceeds maximum, will be truncated=  Sp-Floor 3 Physical Therapy Toilet Sys-4 Flr-2 Sch-H HPlcmt-core ZN NECB System 4 PSZ Demand Inlet Node\n   **   ~~~   ** Will be processed as Alpha=SP-FLOOR 3 PHYSICAL THERAPY TOILET SYS-4 FLR-2 SCH-H HPLCMT-CORE ZN NECB SYSTEM 4 PSZ DEMAND INLET NODES\n   ************* IDF Context for following error/warning message:\n   ************* Note -- lines truncated at 300 characters, if necessary...\n   *************  74347 AvailabilityManagerAssignmentList,\n   ************* indicated Name=Sp-Floor 3 Physical Therapy Toilet Sys-4 Flr-2 Sch-H HPlcmt-core ZN NECB System 4 PSZAvailability Manager List\n   ************* Only last 1 lines before error line shown.....\n   *************  74348   Sp-Floor 3 Physical Therapy Toilet Sys-4 Flr-2 Sch-H HPlcmt-core ZN NECB System 4 PSZAvailability Manager List, !- Name\n   ** Warning ** IP: IDF line~74348 Alpha Argument length exceeds maximum, will be truncated=  Sp-Floor 3 Physical Therapy Toilet Sys-4 Flr-2 Sch-H HPlcmt-core ZN NECB System 4 PSZAvailability Manager Lis\n   **   ~~~   ** Will be processed as Alpha=SP-FLOOR 3 PHYSICAL THERAPY TOILET SYS-4 FLR-2 SCH-H HPLCMT-CORE ZN NECB SYSTEM 4 PSZAVAILABILITY MANAGER LIST\n   ************* IDF Context for following error/warning message:\n   ************* Note -- lines truncated at 300 characters, if necessary...\n   *************  74347 AvailabilityManagerAssignmentList,\n   ************* indicated Name=Sp-Floor 3 Physical Therapy Toilet Sys-4 Flr-2 Sch-H HPlcmt-core ZN NECB System 4 PSZAvailability Manager List\n   ************* Only last 3 lines before error line shown.....\n   *************  74348   Sp-Floor 3 Physical Therapy Toilet Sys-4 Flr-2 Sch-H HPlcmt-core ZN NECB System 4 PSZAvailability Manager List, !- Name\n   *************  74349   AvailabilityManager:Scheduled,          !- Availability Manager Object Type 1\n   *************  74350   Sp-Floor 3 Physical Therapy Toilet Sys-4 Flr-2 Sch-H HPlcmt-core ZN NECB System 4 PSZ Availability Manager; !- Availability Manager Name 1\n   ** Warning ** IP: IDF line~74350 Alpha Argument length exceeds maximum, will be truncated=  Sp-Floor 3 Physical Therapy Toilet Sys-4 Flr-2 Sch-H HPlcmt-core ZN NECB System 4 PSZ Availability Manage\n   **   ~~~   ** Will be processed as Alpha=SP-FLOOR 3 PHYSICAL THERAPY TOILET SYS-4 FLR-2 SCH-H HPLCMT-CORE ZN NECB SYSTEM 4 PSZ AVAILABILITY MANAGER\n   ************* IDF Context for following error/warning message:\n   ************* Note -- lines truncated at 300 characters, if necessary...\n   *************  74352 AvailabilityManager:Scheduled,\n   ************* indicated Name=Sp-Floor 3 Physical Therapy Toilet Sys-4 Flr-2 Sch-H HPlcmt-core ZN NECB System 4 PSZ Availability Manager\n   ************* Only last 1 lines before error line shown.....\n   *************  74353   Sp-Floor 3 Physical Therapy Toilet Sys-4 Flr-2 Sch-H HPlcmt-core ZN NECB System 4 PSZ Availability Manager, !- Name\n   ** Warning ** IP: IDF line~74353 Alpha Argument length exceeds maximum, will be truncated=  Sp-Floor 3 Physical Therapy Toilet Sys-4 Flr-2 Sch-H HPlcmt-core ZN NECB System 4 PSZ Availability Manage\n   **   ~~~   ** Will be processed as Alpha=SP-FLOOR 3 PHYSICAL THERAPY TOILET SYS-4 FLR-2 SCH-H HPLCMT-CORE ZN NECB SYSTEM 4 PSZ AVAILABILITY MANAGER\n   ************* IDF Context for following error/warning message:\n   ************* Note -- lines truncated at 300 characters, if necessary...\n   *************  74356 BranchList,\n   ************* indicated Name=Sp-Floor 3 Physical Therapy Toilet Sys-4 Flr-2 Sch-H HPlcmt-core ZN NECB System 4 PSZ Supply Branches\n   ************* Only last 1 lines before error line shown.....\n   *************  74357   Sp-Floor 3 Physical Therapy Toilet Sys-4 Flr-2 Sch-H HPlcmt-core ZN NECB System 4 PSZ Supply Branches, !- Name\n   ** Warning ** IP: IDF line~74357 Alpha Argument length exceeds maximum, will be truncated=  Sp-Floor 3 Physical Therapy Toilet Sys-4 Flr-2 Sch-H HPlcmt-core ZN NECB System 4 PSZ Supply Branche\n   **   ~~~   ** Will be processed as Alpha=SP-FLOOR 3 PHYSICAL THERAPY TOILET SYS-4 FLR-2 SCH-H HPLCMT-CORE ZN NECB SYSTEM 4 PSZ SUPPLY BRANCHES\n   ************* IDF Context for following error/warning message:\n   ************* Note -- lines truncated at 300 characters, if necessary...\n   *************  74588 AirLoopHVAC:SupplyPath,\n   ************* indicated Name=Sp-Floor 3 Physical Therapy Toilet Sys-4 Flr-2 Sch-H HPlcmt-core ZN NECB System 4 PSZ Node 924 Supply Path\n   ************* Only last 1 lines before error line shown.....\n   *************  74589   Sp-Floor 3 Physical Therapy Toilet Sys-4 Flr-2 Sch-H HPlcmt-core ZN NECB System 4 PSZ Node 924 Supply Path, !- Name\n   ** Warning ** IP: IDF line~74589 Alpha Argument length exceeds maximum, will be truncated=  Sp-Floor 3 Physical Therapy Toilet Sys-4 Flr-2 Sch-H HPlcmt-core ZN NECB System 4 PSZ Node 924 Supply Pat\n   **   ~~~   ** Will be processed as Alpha=SP-FLOOR 3 PHYSICAL THERAPY TOILET SYS-4 FLR-2 SCH-H HPLCMT-CORE ZN NECB SYSTEM 4 PSZ NODE 924 SUPPLY PATH\n   ************* IDF Context for following error/warning message:\n   ************* Note -- lines truncated at 300 characters, if necessary...\n   *************  75576 AirLoopHVAC,\n   ************* indicated Name=Sp-Floor 3 Undeveloped 1 Sys-4 Flr-2 Sch-E HPlcmt-south ZN NECB System 4 PSZ\n   ************* Only last 3 lines before error line shown.....\n   *************  75577   Sp-Floor 3 Undeveloped 1 Sys-4 Flr-2 Sch-E HPlcmt-south ZN NECB System 4 PSZ, !- Name\n   *************  75578   ,                                       !- Controller List Name\n   *************  75579   Sp-Floor 3 Undeveloped 1 Sys-4 Flr-2 Sch-E HPlcmt-south ZN NECB System 4 PSZAvailability Manager List, !- Availability Manager List Name\n   ** Warning ** IP: IDF line~75579 Alpha Argument length exceeds maximum, will be truncated=  Sp-Floor 3 Undeveloped 1 Sys-4 Flr-2 Sch-E HPlcmt-south ZN NECB System 4 PSZAvailability Manager Lis\n   **   ~~~   ** Will be processed as Alpha=SP-FLOOR 3 UNDEVELOPED 1 SYS-4 FLR-2 SCH-E HPLCMT-SOUTH ZN NECB SYSTEM 4 PSZAVAILABILITY MANAGER LIST\n   ************* IDF Context for following error/warning message:\n   ************* Note -- lines truncated at 300 characters, if necessary...\n   *************  75635 AvailabilityManagerAssignmentList,\n   ************* indicated Name=Sp-Floor 3 Undeveloped 1 Sys-4 Flr-2 Sch-E HPlcmt-south ZN NECB System 4 PSZAvailability Manager List\n   ************* Only last 1 lines before error line shown.....\n   *************  75636   Sp-Floor 3 Undeveloped 1 Sys-4 Flr-2 Sch-E HPlcmt-south ZN NECB System 4 PSZAvailability Manager List, !- Name\n   ** Warning ** IP: IDF line~75636 Alpha Argument length exceeds maximum, will be truncated=  Sp-Floor 3 Undeveloped 1 Sys-4 Flr-2 Sch-E HPlcmt-south ZN NECB System 4 PSZAvailability Manager Lis\n   **   ~~~   ** Will be processed as Alpha=SP-FLOOR 3 UNDEVELOPED 1 SYS-4 FLR-2 SCH-E HPLCMT-SOUTH ZN NECB SYSTEM 4 PSZAVAILABILITY MANAGER LIST\n   ************* IDF Context for following error/warning message:\n   ************* Note -- lines truncated at 300 characters, if necessary...\n   *************  75902 AirLoopHVAC,\n   ************* indicated Name=Sp-Floor 3 Undeveloped 2 Sys-4 Flr-2 Sch-E HPlcmt-south ZN NECB System 4 PSZ\n   ************* Only last 3 lines before error line shown.....\n   *************  75903   Sp-Floor 3 Undeveloped 2 Sys-4 Flr-2 Sch-E HPlcmt-south ZN NECB System 4 PSZ, !- Name\n   *************  75904   ,                                       !- Controller List Name\n   *************  75905   Sp-Floor 3 Undeveloped 2 Sys-4 Flr-2 Sch-E HPlcmt-south ZN NECB System 4 PSZAvailability Manager List, !- Availability Manager List Name\n   ** Warning ** IP: IDF line~75905 Alpha Argument length exceeds maximum, will be truncated=  Sp-Floor 3 Undeveloped 2 Sys-4 Flr-2 Sch-E HPlcmt-south ZN NECB System 4 PSZAvailability Manager Lis\n   **   ~~~   ** Will be processed as Alpha=SP-FLOOR 3 UNDEVELOPED 2 SYS-4 FLR-2 SCH-E HPLCMT-SOUTH ZN NECB SYSTEM 4 PSZAVAILABILITY MANAGER LIST\n   ************* IDF Context for following error/warning message:\n   ************* Note -- lines truncated at 300 characters, if necessary...\n   *************  75961 AvailabilityManagerAssignmentList,\n   ************* indicated Name=Sp-Floor 3 Undeveloped 2 Sys-4 Flr-2 Sch-E HPlcmt-south ZN NECB System 4 PSZAvailability Manager List\n   ************* Only last 1 lines before error line shown.....\n   *************  75962   Sp-Floor 3 Undeveloped 2 Sys-4 Flr-2 Sch-E HPlcmt-south ZN NECB System 4 PSZAvailability Manager List, !- Name\n   ** Warning ** IP: IDF line~75962 Alpha Argument length exceeds maximum, will be truncated=  Sp-Floor 3 Undeveloped 2 Sys-4 Flr-2 Sch-E HPlcmt-south ZN NECB System 4 PSZAvailability Manager Lis\n   **   ~~~   ** Will be processed as Alpha=SP-FLOOR 3 UNDEVELOPED 2 SYS-4 FLR-2 SCH-E HPLCMT-SOUTH ZN NECB SYSTEM 4 PSZAVAILABILITY MANAGER LIST\n   ************* Beginning Zone Sizing Calculations\n   ** Warning ** ProcessScheduleInput: Schedule:Day:Interval=\"ECONOMIZER MAX OA FRACTION 100 PCT DEFAULT\", Blank Schedule Type Limits Name input -- will not be validated.\n   ** Warning ** ProcessScheduleInput: Schedule:Day:Interval=\"SCHEDULE DAY 1\", Blank Schedule Type Limits Name input -- will not be validated.\n   ** Warning ** ProcessScheduleInput: Schedule:Day:Interval=\"SCHEDULE DAY 10\", Blank Schedule Type Limits Name input -- will not be validated.\n   ** Warning ** ProcessScheduleInput: Schedule:Day:Interval=\"SCHEDULE DAY 100\", Blank Schedule Type Limits Name input -- will not be validated.\n   ** Warning ** ProcessScheduleInput: Schedule:Day:Interval=\"SCHEDULE DAY 101\", Blank Schedule Type Limits Name input -- will not be validated.\n   ** Warning ** ProcessScheduleInput: Schedule:Day:Interval=\"SCHEDULE DAY 102\", Blank Schedule Type Limits Name input -- will not be validated.\n   ** Warning ** ProcessScheduleInput: Schedule:Day:Interval=\"SCHEDULE DAY 103\", Blank Schedule Type Limits Name input -- will not be validated.\n   ** Warning ** ProcessScheduleInput: Schedule:Day:Interval=\"SCHEDULE DAY 104\", Blank Schedule Type Limits Name input -- will not be validated.\n   ** Warning ** ProcessScheduleInput: Schedule:Day:Interval=\"SCHEDULE DAY 105\", Blank Schedule Type Limits Name input -- will not be validated.\n   ** Warning ** ProcessScheduleInput: Schedule:Day:Interval=\"SCHEDULE DAY 106\", Blank Schedule Type Limits Name input -- will not be validated.\n   ** Warning ** ProcessScheduleInput: Schedule:Day:Interval=\"SCHEDULE DAY 107\", Blank Schedule Type Limits Name input -- will not be validated.\n   ** Warning ** ProcessScheduleInput: Schedule:Day:Interval=\"SCHEDULE DAY 108\", Blank Schedule Type Limits Name input -- will 
[...]
76cTqP4u0Yt/ePfDa6DifxaDoZh3GmsEXi8WPv6XDoBV6m5H0aJVdePL0OvWFny5Hxx8tWMJuFk2GzYWM39rYcsBqtIEmiZuOmse/12gUPuk0P8vMfFCe343CBdxBMzq+mUXp8YxxeFKBdalxMJ8nBp3B0eZVYjbPpeJhfY3FvXs0Ono+n08jreL9d3caj82Dsvb4Ko2Bmfz/i1W180PGej6MD33t1fnVw4v342/j8OjmIp/P0pvzfr96vpyff27cl4bWVePV/3ovzc/veR3uu2/zd4/g8Gs2Sv4vv+e7xcPTxy9PiMbJYquWNhseNc1sDJ+llC0aTMHrn99sNL7uYx43hKJ6Ng9sno8k4nTs4G0/PP3zbkAFT1cU5eMntLD3eXs/H74OPweJV55F2fAwim6/esTccXc/GYWsSfnr18bLZ+OsXIPe9w3Y7+5+tBWh1h0ESpMJv/miMg7Nw3HjSGIYXwXyceLNoejEah439xcy7m8YT02rvNz4G43m4/Pe5XafSY9Kl5+Tk9LTxeT+Xjg/S6YB0DkE6XZBOD6TTB+kMQDpHIB3TRgmhMtqgUtqgctqgktqgstqg0tqg8tqgEtugMttHZbYPW6tRme2jMtsvlNlePL++3vjh6lwdLQqHBWTEa1RMRrxCxWTE61NMRqz7YjJi1ReTEWu+mIxY8cVkxHovJiM3soI6oDyW21hBHVAmy02soA4ol+UWVlAHlM1yAyuoA8pnuX0V1EGty6B8lntXQZ38+fxpNEmKt60z+1J+HfHyFNQRL09BHfHyFNQRy72gjljuBXXEci+oI5Z7QR2x3AvqyP2rqBAqo+UOVlQIldNyDysqhMpquYsVFULltdzHigqhMlvuZEWFYGs1KrPlZlZUKH9mrz/J2PpLw1Kba2/8h97ip4gBIfzqQ3SqD3FYfYhu9SF61YfoVx9iUH2Io+pDbHT2qmLUUN+mhgI3NVS4qaHETQ01bmooclNDlZsaytzUUOd+DXXu19HHa6hzv4Y698vV+dYfdMy3rVr84iMghHw3YCHkmwELId8LWAh5yYWFkFdcWAh5wYWFkNdbWAh5uYWFcHxyjYshf/SHiyF/KoiLIX9giItRQ4k7tlW4GDUUuWNbhYtRQ5k7tlW4/idvq3Ax6ujjNTRyx7YKF6NcnW/93ax826rFD2sBQsh3AxZCvhmwEPK9gIWQl1xYCHnFhYWQF1xYCHm9hYWQvxsFC+HYVuFiyNsqXAx5W4WLIW+rcDHkr2jhYsjfS8TFkL+yiIshf5sRF0P+oiMuRg117thW4WLU0cdraOSObRUuRrlWvvXnSfJtqxa/XwIIId8NWAj5ZsBCyPcCFkLeVsFCyNsqWAh5WwULIW+rYCHk5RYWwrGtwsWQt1W4GPK2ChdD3lbhYsjbKlwMeVuFiyFvq3Ax5G0VLoa8rcLFqKHOHdsqXIw6+ngNjdyxrcLFKNfKt7rA59tWLWziASHkuwELId8MWAj5XsBCyNsqWAh5WwULIW+rYCHkbRUshLzcwkI4tlW4GPK2ChdD3lbhYsjbKlwMeVuFiyFvq3Ax5G0VLoa8rcLFkLdVuBg11LljW4WLUUcfr6GRO7ZVuBjlWvlWs91826qFGy8ghHw3YCHkmwELId8LWAh5WwULIW+rYCHkbRUshLytgoWQl1tYCMe2ChdD3lbhYsjbKlwMeVuFiyFvq3Ax5G0VLoa8rcLFkLdVuBjytgoXo4Y6d2yrcDHq6OM1NHLHtgoXo1wr3+ppmG9btTA9BISQ7wYshHwzYCHkewELIW+rYCHkbRUshLytgoWQt1WwEC7fKVAIp9kaKobLrQoVw2VkhYrh8rhCxXDZX6FiuDzfUDFcdnCoGC6nOFQMl4kcKkYNde7YVuFi1NHHa2jkjm0VLsb2Vv42j8Pr0s7ZO/Ym4aeVg2xmHNuMP17uZw6wW61iV57QcZh8P51PhnGz2973jOnuex37L7+bz272JsVYW10PhydBEl5Oo9unN6N44am8Pv8cxtOpwItoGEYv59biOPeBluN2k+OXMIjnUbjAsC7Ny+tesek3pznNaU5zmtOc5jSnOc1pTnOa05zmNKc5zWlOc5rTnOY0pznNaU5zmtOc5jSnOc1pTnOa05zmNKc5zWlOc5rTnOY0pznNaU5zmtOc5jSn/6emb1vTj2EUjYbhL4F9sNa02srnVe2jsfHmo7GvwmgUxsvHaxv7qweIZ+Np0hqPJuHWR2TjLz2nu/3J2riV/fT8bDoOktF0kkI14iScHZyFF9MobOR78vnn8DKcDDdPaPFas9fe9zr2yeW2fZDZ/k9jHF4kFmyL9Eq29e4yTE4nib0+aYiL+eQ8I23ueX9skVgRhuuj32x9ltuO0YXXTK5GcSvO7kq+QHbcOaiVXr/T4Pyq+R/gomorfPvoeMq+1H03m8YjK/gsfTnP2ayGlfkCVTT9VAxphTWaDENbDwdmv+DRq/G+7IEXo3Bs8625vKaLOrmMpvNZOPS++cb7y/L1m9a7qyBePv9uC2zv7uztF2fTC9IKLi+f2xitcTi5TK687zzf+4fXeDoeN7wnm++Ix6PzsHlg9t603+5trbd7ZzKNvOb79FTa33rv0zDLVF3Gta/9LV1xit8gO2waL/XevH/b+hDeesfHx4uLV04xU13e9vdFT3U1zqIw+FDm4M8Fjyn6fnu9lmd3bNPaJsMyUzIjh9a7II5Hl5NweGItIuI32ZV8W+5Srm70bB5fNcvei/SWPlncz/KVNB4/yXOWLfvOslHiJJp+CPPFWby3bKTpLDgfJbf5Qi3fXPqsshCrUGVVVgvJ5rJSpjwKLz52rMp5c+HxDjxTVK1IueVn/byfddVc7/+8bU9hx+PH3m+/v/b+/eL3l96rFy9f//TrD97PL3746cT78fTlaT6B5+mqHd4EdovmJVMvnkaJN5lfp3lw7mWWJrEXxOfp5mU0ucyhuLr2VudOZw72vbP8i0sUJvNo4s2CKA6fj6dB0gzskr+X3so7r51lr+W6mNu3aHfCLk9hm/Dnap1e1vvPrNyzYm8+GoYXwXyceLNomq5h4aN979FfB4OTk9PTRxUbzxCHOMQhDnGIQxziEIc4xCHO/yaOF8+v0/8E9oahfdEbBreWKAqHpCENaUhDGtKQhjSkIQ1pSEMaN82n7KtZf6I5G89D4hCHOMQhDnGIQxziEIc4xCFOGZz17wYa+7uBr+bS7wZ2TPYJ29Onh4dHRyQlKUlJSlKSkpSkJCUpSUlKUpKSdDdI/Yw0SCTSdkba6fj+oEdSkpKUpCQlKUlJSlKSkpSkJCUpSXeDtGNJn0cjgdQ/ykiN6fc7HZKSlKQkJSlJSUpSkpKUpCQlKUlJuhukh5b09dVcIh1kpEfp6H5PUpKSlKQkJSlJSUpSkpKUpCQlKUl3g7RrSf8VDiXSfkb67NnJSb9PUpKSlKQkJSlJSUpSkpKUpCQlKUl3g7SX/WViHkqkvYz05KTXIylJSUpSkpKUpCQlKUlJSlKSkpSku0Lat6S/TCVnQb+bkQ4Gvt/tkpSkJCUpSUlKUpKSlKQkJSlJSUrS2khXKMMo+NTcKnbTSkbJOHx1FczCVhLeJM1HP07nUbwd4/b+kc9G1+EkHk0n4zDOFLZIPH7sPR0OvcDLlLxPo+TKi6fXoTfsbDky/njZCmazcDJsNmzsxt6WA1ajFSRJ1GzcNPa9XrvgQbfpQX7+g+Lkdhwu8A6CyfnVNEqPb4zDiwK0S42L6SQ5+BSOLq8Sq3E2HQ/zayzuzavZwfPxdBp5He/3yTD8GI6ns3DoGe/VbXxw6D0fRwe+9+r86uDU+/G38fl1chBP5+n9+L9fvV9PT763b0vCa+/Q++3V/3kvzs/tex/tue7wd4/j82g0S/4uvue7x8PRxy9Pi8fIYqmWNxoeN85t+p+kVywYTcLond83DS+7jseN4SiejYPbJ6PJOJ07OBtPzz9825ABU9XFOXjJ7Sw93l7Kx++Dj8HiVeeRdnwMIpuq3rE3HF3PxmFrEn569fGy2fjrFyD3vcN2O/ufrbVndYdBEqTCb/5ojIOzcNx40hiGF8F8nHizaHoxGoeN/cXMu5vGE9Nq7zc+BuN52HjS7bY6R3dGp7vfOLcrViqRLkInJ6enjc/7uWT9amQ71cgeViPbrUa2V41svxrZQTWyR9XImnZFuhXVmamo0ExFlWYqKjVTUa2ZiorNVFRtpqJyMxXVm19RvflV9bWK6s2vqN58Tb158fz6euO3wcvsHKJwWEA17/Utppr36hZTzXtti6nmXcmKqeZdx4qp5l3FiqnmXcOKqeZdwYqp5t4wFJStprpybxcKylZTX7k3CwVlq6mw3FuFgrLV1FjujUJB2WqqLPc2oaBsRT2smirLvUcoKFu6yj6NJol6e3Bm35FfNu+lLSib99IWlM17aQvK5l3ACsrmXcAKyuZdwArK5l3ACsrmXcAKyubeJxTVrajOcu8UiupWVGm59wpFdSuqtdy7haK6FVVb7v1CUd2K6i33jqGoblV9raJ6y71pKKpbrN7e5vngYvkBpXfsTcJPqw9Gss9DmvHHy/3sg42tn4CsPuWMw+T76XwyjJvd9r5nTHff69h/+d18n6LcpBjrD2+Hw5MgCS+n0e3Tm1G8+JRwfS1yfJSaCryIhmH0cm4/tMt9oOW43eT4JQzieRQuMOznjst7oP1wOPtAajPUqzAahfESN420vCGz8TRp2U/JtoaMv3Te20njVpZ4s+k4SEbTSQrViJNwdnAWXkyjsJEvk34OL8PJcPOEFq81e2kWdGwm2A/VjP2f5WevWz+WXsm23l2GyekksdcnDXExn5xnpM09748cH75awnB99JuttWHH6MJrJlejOM1re1y+QHbcOaiVXr/T4Pyq+R/gomor/OVnjEvdd7NpPLKCz9KX85zNaliZL1BF00/FkFZYo8kwtIV7YPYLHr0a78seeDEKxzbfmstruqiTy2g6t5+mf/ON95fl6zetd1dBvFxPbIHt3Z29/eJsekFaweXlcxujNQ4nl8mV953ne//wGk/H44b3ZPMd8Xh0HjYPzN6b9tu9rfV270ymkdd8n55K+1vvfRpmmarLuPa1vx17pvgNssOm8VLvzfu3rQ9hurwdHy8uXjnFTHV5298XPdXVOIvC4EOZgz8XPKbo++31Wp7dsU1rmwzLTMkaY+vd4otF4TD7alH8JruSb8tdytWNns3jq2bZe5He0ieL+1m+ksbjJ3nOsmXfWTZKnETTD2G+OIv3lo00nQXno+Q2X6jlm0ufVRZiFaqsymoh2VxWypRH4cXHjlU5by483oFniqoVKbf8rJ/3s66a6/2ft+0p7Hj82Pvt99fev1/8/tJ79eLl659+/cH7+cUPP514P56+PM0n8DxdtcObwG7RvGTqxdN0Iz2ZX6d5cO5lW8TYC+LzdPMymlzmUFxde6tzpzMH+95Z/sUlCpN5NPFmQRSHz8fTIGkGdsnfS2/lndfOstdyXcztW7Q7YZensE3483/hC6B/+sR2+S1P+wHsf+X7qMQhDnGIQxziEIc4xCEOcYiz8zj3v/liiaJwSBrSkIY0pCENaUhDGtKQhjSkcdPc+06gpbFf8SMOcYhDHOIQhzjEIQ5xiEMc4vwXbRdfh9ezMAqSeRR6zed7NF58WMaL89lsfOs9HUWevVE74pno74Jnok/PxMLWBvRMLC5Lz0R6Jha3NqBnYjldeibSM5GeifRMpGciPRO/JEvPRHom0jOx8DaBnonFZemZSM9EeiYW3SbQM7GcLj0T6ZlIz0R6Jn7hgwt6Jn6Bg56J9Ez06JmYD4ueifRMLDPomWgHPRPpmZgNeia630nPxO0CdtAzcTesRYhDHOIQhzjEIQ5xiEMc4hBn53EemOMIaUhDGtKQhjSkIQ1pSEMa0uwOzVfjdEIc4hCHOMQhDnGIQxziEIc45ePRM/HLg56JC89Ez+yIa2JnF1wTO3RNLGxuQNfE4rJ0TaRrYnFzA7omltOlayJdE+maSNdEuibSNfFLsnRNpGsiXRMLbxPomlhclq6JdE2ka2LRbQJdE8vp0jWRrol0TaRr4hc+uKBr4hc46JpI10SPron5sOiaSNfEMoOuiXbQNZGuidmga6L7nXRN3C5gB10Td8NchDjEIQ5xiEMc4hCHOMQhDnF2HueBeY6QhjSkIQ1pSEMa0pCGNKQhze7QfDVeJ8QhDnGIQxziEIc4xCEOcYhTPh5dE7886Jq4dE30d8Q18XAXXBMPa3NNzP5d1p4JpNMB6RyCdLognR5Ipw/SGYB0jkA6G64CKiFURhtUShtUThtUUhtUVhtUWhtUXhtUYhtUZvuozPZhazUqs31UZvuFMju/m9+GVHn7PoWMeIXKG/QpZMS6L2/Bp5ARa768yZ5CRqx3hY2eRgeUx3IbUzjjaXRAqSz3MIXZnUYHlM1yA1P412nWQVA+y91LYUmn0QHls9y6yrvMbcgobOU0OuLlURjHaXTEcldYw2l0xHJXmL9pdMRy19i7qYRQGS13MI1jm0oIldRyE9OYsKmEUHkt9zGNr5pqZURlttzKNFZpKiFUZsvd7J7Qb9FoGo2SW894B17z1XyyZ32oegf/L5gctM1B9u9n4flBx0htrr3xH3pPnx4eHh0BQvjVh+hUH+Kw+hDd6kP0qg/Rrz7EoPoQR9WH2OjsVcWoob5NDQVuaqhwU0OJmxpq3NRQ5KaGKjc1lLmpoc79Gurcr6OP11Dnfg117percz+LESRSjHa+bVWn4/uDHiCEfDdgIeSbAQsh3wtYCHnJhYWQV1xYCHnBhYWQ11tYCHm5hYVwbKtwMWqob8e2Chejhgp3bKtwMWqocce2Chejhip3bKtwMWqoc8e2Chejjj5eQ507tlW4GOXqvGNjPI9GQgz/KN+2yph+v9MBhJDvBiyEfDNgIeR7AQshL7mwEPKKCwshL7iwEPI3oGAh5O9GwUI4vhCIiyF/owoXQ/6yFS6G/D0sXAz5K1q4GPL3EnEx5K8s4mLI32bExaihzB3fgcT1vxrq3PHNSVyMGurc8X1LXIxyrfzQxnh9NZdiDPJtq+xvLnW/B4SQt1WwEPK2ChZCvhewEPK2ChZC3lbBQsjbKlgIeb2FhZCXW1gIx7YKF0NebnEx5OUWF0NebnEx5G0VLoa8rcLFkLdVuBjytgoXo4Yyd2yrcP2vhjp3bKtwMWqoc8e2ChejXCvv2hj/CodSjH6+bdWzZycn/T4ghLytgoWQt1WwEPK9gIWQt1WwEPK2ChZC3lbBQsjrLSyEvNzCQji2VbgY8nKLiyEvt7gY8nKLiyFvq3Ax5G0VLoa8rcLFkLdVuBg1lLljW4XrfzXUuWNbhYtRQ507tlW4GOVaeS/bus1DKUYv37bq5KTXg4SQt1WwEPK2ChZCvhewEPK2ChZC3lbBQsjbKlgIeb2FhZCXW1gIx7YKF0NebnEx5OUWF0NebnEx5G0VLoa8rcLFkLdVuBjytgoXo4Yyd2yrcP2vhjp3bKtwMWqoc8e2ChejXCvv2xi/TKWvxfvdfNuqwcD3u11ACHlbBQshb6tgIeR7AQshb6tgIeRtFSyEvK2ChXC5S4FCuHynQCGcZmuoGPJyi4vhMrJCxXB5XKFiuOyvUDFcnm+oGC47OFQMl1McKkYNZe70l0P1vxrq3OlKh4pRQ507vexQMba38rd5HF6XRszesTcJP60cZDPj2Gb88XI/c4DdahW7cnOOw+T76XwyjJvd9r5nTHff69h/+d18drM3KcbaiXo4PAmS8HIa3T69GcULL+T1+eewjE4FXkTDMHo5t9bEuQ+0HLebHL+EQTyPwgWGdVdeXveKPbk5zWlOc5rTnOY0pznNaU5zmtOc5jSnOc1pTnOa05zmNKc5zWlOc5rTnOY0pznNaU5zmtOc5jSnOc1pTnOa05zmNKc5zWlOc5rTnOY0pzn9PzV925p+DKNoNAx/CeyDtabVVj6vah+NjTcfjX0VRqMwXj5e29hfPUA8G0+T1ng0Cbc+Iht/6Tnd7U/Wxq3sp+dn03GQjKaTFKoRJ+Hs4Cy8mEZhI9+Tzz+Hl+FkuHlCi9eavfa+17FPLrftg8z2fxrj8CKxYFukV7Ktd5dhcjpJ7PVJQ1zMJ+cZaXPP+2OLxIowXB/9Zuuz3HaMLrxmcjWKW3F2V/IFsuPOQa30+p0G51fN/wAXVVvh20fHU/al7rvZNB5ZwWfpy3nOZjWszBeooumnYkgrrNFkGNp6ODD7BY9ejfdlD7wYhWObb83lNV3UyWU0nc/CoffNN95flq/ftN5dBfHy+XdbYHt3Z2+/OJtekFZwefncxmiNw8llcuV95/neP7zG0/G44T3ZfEc8Hp2HzQOz96b9dm9rvd07k2nkNd+np9L+1nufhlmm6jKufe1v6YpT/AbZYdN4qffm/dvWh/DWOz4+Xly8coqZ6vK2vy96qqtxFoXBhzIHfy54TNH32+u1PLtjm9Y2GZaZkhk5tN4FcTy6nITDE2sREb/JruTbcpdydaNn8/iqWfZepLf0yeJ+lq+k8fhJnrNs2XeWjRIn0fRDmC/O4r1lI01nwfkouc0Xavnm0meVhViFKquyWkg2l5Uy5VF48bFjVc6bC4934JmiakXKLT/r5/2sq+Z6/+dtewo7Hj/2fvv9tffvF7+/9F69ePn6p19/8H5+8cNPJ96Ppy9P8wk8T1ft8CawWzQvmXrxNEq8yfw6zYNzL7M0ib0gPk83L6PJZQ7F1bW3Onc6c7DvneVfXKIwmUcTbxZEcfh8PA2SZmCX/L30Vt557Sx7LdfF3L5FuxN2eQrbhD9X6/Sy3n9m5Z4Ve/PRMLwI5uPEm0XTdA0LH+17j/46GJycnJ4+qth4hjjEIQ5xiEMc4hCHOMQhDnH+N3G8eH6d/iewNwzti94wuLVEUTgkDWlIQxrSkIY0pCENaUhDGtK4aT5lX836E83ZeB4ShzjEIQ5xiEMc4hCHOMQhDnHK4Kx/N9DY3w18NZd+N7Bjsk/Ynj49PDw6IilJSUpSkpKUpCQlKUlJSlKSkpSku0HqZ6RBIpG2M9JOx/cHPZKSlKQkJSlJSUpSkpKUpCQlKUlJuhukHUv6PBoJpP5RRmpMv9/pkJSkJCUpSUlKUpKSlKQkJSlJSUrS3SA9tKSvr+YS6SAjPUpH93uSkpSkJCUpSUlKUpKSlKQkJSlJSbobpF1L+q9wKJH2M9Jnz05O+n2SkpSkJCUpSUlKUpKSlKQkJSlJSbobpL3sLxPzUCLtZaQnJ70eSUlKUpKSlKQkJSlJSUpSkpKUpCTdFdK+Jf1lKjkL+t2MdDDw/W6XpCQlKUlJSlKSkpSkJCUpSUlKUpLWRrpCGUbBp+ZWsZtWMkrG4aurYBa2kvAmaT76cTqP4u0Yt/ePfDa6DifxaDoZh3GmsEXi8WPv6XDoBV6m5H0aJVdePL0OvWFny5Hxx8tWMJuFk2GzYWM39rYcsBqtIEmiZuOmse/12gUPuk0P8vMfFCe343CBdxBMzq+mUXp8YxxeFKBdalxMJ8nBp3B0eZVYjbPpeJhfY3Fv/vn0n4sL/DK8CoPEM96L83Pv1fnVoz3XbfrucXwejWbJ38X3fPd4OPr45WnxGFks1fJGw+PGuc3hk/S0g9EkjN75/W7Dyy7GcWM4imfj4PbJaDJO5w7OxtPzD982ZMBUdXEOXnI7S4+31+Px++BjsHjVeaQdH4PI5pt37A1H17Nx2JqEn159vGw2/voFyH3vsN3O/mdrAVndYZAEqfCbPxrj4CwcN540huFFMB8n3iyaXozGYWN/MfPupvHEtNr7jY/BeB4u/31u15n0mHTpODk5PW183s+l44N0OiCdQ5BOF6TTA+n0QToDkM4RSMe0UUKojDaolDaonDaopDaorDaotDaovDaoxDaozPZRme3D1mpUZvuozPYLZbYXz6+vN354OldHi8JhARnxGhWTEa9QMRnx+hSTEeu+mIxY9cVkxJovJiNWfDEZsd6LyciNrKAOKI/lNlZQB5TJchMrqAPKZbmFFdQBZbPcwArqgPJZbl8FdVDrMiif5d5VUCd/Pn8aTZLibevMvpRfR7w8BXXEy1NQR7w8BXXEci+oI5Z7QR2x3AvqiOVeUEcs94I6cv8qKoTKaLmDFRVC5bTcw4oKobJa7mJFhVB5LfexokKozJY7WVEh2FqNymy5mRUVyp/Z608itv5SsNTm2hv/obf4KWFACL/6EJ3qQxxWH6JbfYhe9SH61YcYVB/iqPoQG529qhg11LepocBNDRVuaihxU0ONmxqK3NRQ5aaGMjc11LlfQ537dfTxGurcr6HO/XJ1vvUHGfNtqxa/2AgIId8NWAj5ZsBCyPcCFkJecmEh5BUXFkJecGEh5PUWFkJebmEhHNsqXIwa6tuxrcLFqKHCHdsqXIwaatyxrcLFqKHKHdsqXIwa6tyxrcLFqKOP11Dnjm0VLka5Ot/6u1f5tlWLH8YChJDvBiyEfDNgIeR7AQshL7mwEPKKCwshL7iwEPI3oGAh5O9GwUI4vhCIiyF/owoXQ/6yFS6G/D0sXAz5K1q4GPL3EnEx5K8s4mLI32bExaihzB3fgcT1vxrq3PHNSVyMGurc8X1LXIxyrXzrz4vk21Ytfn8EEELeVsFCyNsqWAj5XsBCyNsqWAh5WwULIW+rYCHk9RYWQl5uYSEc2ypcDHm5xcWQl1tcDHm5xcWQt1W4GPK2ChdD3lbhYsjbKlyMGsrcsa3C9b8a6tyxrcLFqKHOHdsqXIxyrXyri3u+bdXC5h0QQt5WwULI2ypYCPlewELI2ypYCHlbBQshb6tgIeT1FhZCXm5hIRzbKlwMebnFxZCXW1wMebnFxZC3VbgY8rYKF0PeVuFiyNsqXIwaytyxrcL1vxrq3LGtwsWooc4d2ypcjHKtfKtZbr5t1cJNFxBC3lbBQsjbKlgI+V7AQsjbKlgIeVsFCyFvq2Ah5PUWFkJebmEhHNsqXAx5ucXFkJdbXAx5ucXFkLdVuBjytgoXQ95W4WLI2ypcjBrK3LGtwvW/Gurcsa3Cxaihzh3bKlyMcq18qydhvm3VwrQQEELeVsFCyNsqWAj5XsBCyNsqWAh5WwULIW+rYCFc7lKgEC7fKVAIp9kaKoa83OJiuIysUDFcHleoGC77K1QMl+cbKobLDg4Vw+UUh4pRQ5k7/eVQ/a+GOne60qFi1FDnTi87VIztrfxtHofXpR2zd+xNwk8rB9nMOLYZf7zczxxgt1rFrjyd4zD5fjqfDONmt73vGdPd9zr2X343n93sTYqxtqoeDk+CJLycRrdPb0bxwhN5ff45jKNTgRfRMIxezq1Fce4DLcftJscvYRDPo3CBYV2Wl9e9YtNuTnOa05zmNKc5zWlOc5rTnOY0pznNaU5zmtOc5jSnOc1pTnOa05zmNKc5zWlOc5rTnOY0pznNaU5zmtOc5jSnOc1pTnOa05zmNKc5zWlO/09N37amH8MoGg3DXwL7YK1ptZXPq9pHY+PNR2NfhdEojJeP1zb2Vw8Qz8bTpDUeTcKtj8jGX3pOd/uTtXEr++n52XQcJKPpJIVqxEk4OzgLL6ZR2Mj35PPP4WU4GW6e0OK1Zq+973Xsk8tt+yCz/Z/GOLxILNgW6ZVs691lmJxOEnt90hAX88l5Rtrc8/7YIrEiDNdHv9n6LLcdowuvmVyN4lac3ZV8gey4c1ArvX6nwflV8z/ARdVW+PbR8ZR9qftuNo1HVvBZ+nKes1kNK/MFqmj6qRjSCms0GYa2Hg7MfsGjV+N92QMvRuHY5ltzeU0XdXIZTeezcOh98433l+XrN613V0G8fP7dFtje3dnbL86mF6QVXF4+tzFa43BymVx533m+9w+v8XQ8bnhPNt8Rj0fnYfPA7L1pv93bWm/3zmQaec336am0v/Xep2GWqbqMa1/7W7riFL9Bdtg0Xuq9ef+29SG89Y6PjxcXr5xiprq87e+LnupqnEVh8KHMwZ8LHlP0/fZ6Lc/u2Ka1TYZlpmRGDq13QRyPLifh8MRaRMRvsiv5ttylXN3o2Ty+apa9F+ktfbK4n+UraTx+kucsW/adZaPESTT9EOaLs3hv2UjTWXA+Sm7zhVq+ufRZZSFWocqqrBaSzWWlTHkUXnzsWJXz5sLjHXimqFqRcsvP+nk/66q53v95257CjsePvd9+f+39+8XvL71XL16+/unXH7yfX/zw04n34+nL03wCz9NVO7wJ7BbNS6ZePI0SbzK/TvPg3MssTWIviM/TzctocplDcXXtrc6dzhzse2f5F5coTObRxJsFURw+H0+DpBnYJX8vvZV3XjvLXst1Mbdv0e6EXZ7CNuHP1Tq9rPefWblnxd58NAwvgvk48WbRNF3Dwkf73qO/DgYnJ6enjyo2niEOcYhDHOIQhzjEIQ5xiEOc/00cL55fp/8J7A1D+6I3DG4tURQOSUMa0pCGNKQhDWlIQxrSkIY0bppP2Vez/kRzNp6HxCEOcYhDHOIQhzjEIQ5xiEOcMjjr3w009ncDX82l3w3smOwTtqdPDw+PjkhKUpKSlKQkJSlJSUpSkpKUpCQl6W6Q+hlpkEik7Yy00/H9QY+kJCUpSUlKUpKSlKQkJSlJSUpSku4GaceSPo9GAql/lJEa0+93OiQlKUlJSlKSkpSkJCUpSUlKUpKSdDdIDy3p66u5RDrISI/S0f2epCQlKUlJSlKSkpSkJCUpSUlKUpLuBmnXkv4rHEqk/Yz02bOTk36fpCQlKUlJSlKSkpSkJCUpSUlKUpLuBmkv+8vEPJRIexnpyUmvR1KSkpSkJCUpSUlKUpKSlKQkJSlJd4W0b0l/mUrOgn43Ix0MfL/bJSlJSUpSkpKUpCQlKUlJSlKSkpSktZGuUIZR8Km5VeymlYyScfjqKpiFrSS8SZqPfpzOo3g7xu39I5+NrsNJPJpOxmGcKWyRePzYezoceoGXKXmfRsmVF0+vQ2/Y2XJk/PGyFcxm4WTYbNjYjb0tB6xGK0iSqNm4aex7vXbBg27Tg/z8B8XJ7Thc4B0Ek/OraZQe3xiHFwVolxoX00ly8CkcXV4lVuNsOh7m11jcm38+/efiAr8Mr8Ig8Xzvxfm59+r86tGe6zZ99zg+j0az5O/ie757PBx9/PK0eIwslmp5o+Fx49zm8El62sFoEkbv/H6v4WUX47gxHMWzcXD7ZDQZp3MHZ+Pp+YdvGzJgqro4By+5naXH2+vx+H3wMVi86jzSjo9BZPPNO/aGo+vZOGxNwk+vPl42G3/9AuS+d9huZ/+ztYCs7jBIglT4zR+NcXAWjhtPGsPwIpiPE28WTS9G47Cxv5h5d9N4Ylrt/cbHYDwPl/8+t+tMeky6dJycnJ42Pu/n0vFBOh2QziFIpwvS6YF0+iCdAUjnCKRj2ighVEYbVEobVE4bVFIbVFYbVFobVF4bVGIbVGb7qMz2YWs1KrN9VGb7hTLbi+fX1xs/PJ2ro0XhsICMeI2KyYhXqJiMeH2KyYh1X0xGrPpiMmLNF5MRK76YjFjvxWTkRlZQB5THchsrqAPKZLmJFdQB5bLcwgrqgLJZbmAFdUD5LLevgjqodRmUz3LvKqiTP58/jSZJ8bZ1Zl/KryNenoI64uUpqCNenoI6YrkX1BHLvaCOWO4FdcRyL6gjlntBHbl/FRVCZbTcwYoKoXJa7mFFhVBZLXexokKovJb7WFEhVGbLnayoEGytRmW23MyKCuXP7PUnEVt/KTjf3xsXPyUMCCH/1y0shPzfvbAQ8n8Rw0LIfwWChZD/PgQLIf/lCBZC/psSLIT81yZYCMefWHExaqhvxx9mcTFqqHDHn3NxMWqocccfgXExaqhyx5+OcTFqqHPHH5xxMero4zXUueMv2LgY5ep86w8y5ttWLX6xERBCvhuwEPLNgIWQ7wUshLzkwkLIKy4shLzgwkLI6y0shLzcwkI4tlW4GDXUt2NbhYtRQ4U7tlW4GDXUuGNbhYtRQ5U7tlW4GDXUuWNbhYtRRx+voc4d2ypcjHJ1vvV3r/JtqxY/jAUIId8NWAj5ZsBCyPcCFkJecmEh5BUXFkJecGEh5PUWFkJebmEhHNsqXIwa6tuxrcLFqKHCHdsqXIwaatyxrcLFqKHKHdsqXIwa6tyxrcLFqKOP11Dnjm0VLka5Ot/68yL5tlWL3x8BhJDvBiyEfDNgIeR7AQshL7mwEPKKCwshL7iwEPJ6CwshL7ewEI5tFS5GDfXt2FbhYtRQ4Y5tFS5GDTXu2FbhYtRQ5Y5tFS5GDXXu2FbhYtTRx2uoc8e2ChejXJ1vdXHPt61a2LwDQsh3AxZCvhmwEPK9gIWQl1xYCHnFhYWQF1xYCHm9hYWQl1tYCMe2Chejhvp2bKtwMWqocMe2Chejhhp3bKtwMWqocse2Chejhjp3bKtwMero4zXUuWNbhYtRrs63muXm21Yt3HQBIeS7AQsh3wxYCPlewELISy4shLziwkLICy4shLzewkLIyy0shGNbhYtRQ307tlW4GDVUuGNbhYtRQ407tlW4GDVUuWNbhYtRQ507tlW4GHX08Rrq3LGtwsUoV+dbPQnzbasWpoWAEC6fG1AIlwMOKITLGwcUwuUHBQrhcooChXB5SIFCuNylQCFcvlOgEE6zNVSMGurbadGGilFDhTuN3VAxaqhxpx0cKkYNVe40kUPFqKHOndZzqBh19PEa6tzpZYeKsb3O3+ZxeF3aMXvH3iT8tHKQzYxjm/HHy/3MAXarVezK0zkOk++n88kwbnbb+54x3X2vY//ld/PZzd6kGGur6uHwJEjCy2l0+/RmFC88kdfnn8M4OhV4EQ3D6OXcWhTnPtBy3G5y/BIG8TwKFxjWZXl53Ss27eY0pznNaU5zmtOc5jSnOc1pTnOa05zmNKc5zWlOc5rTnOY0pznNaU5zmtOc5jSnOc1pTnOa05zmNKc5zWlOc5rTnOY0pznNaU5zmtOc5vT/1PRta/oxjKLRMPwlsA/WmlZb+byqfTQ23nw09lUYjcJ4+XhtY3/1APFsPE1a49Ek3PqIbPyl53S3P1kbt7Kfnp9Nx0Eymk5SqEachLODs/BiGoWNfE8+/xxehpPh5gktXmv22vtexz653LYPMtv/aYzDi8SCbZFeybbeXYbJ6SSx1ycNcTGfnGekzT3vjy0SK8JwffSbrc9y2zG68JrJ1ShuxdldyRfIjjsHtdLrdxqcXzX/A1xUbYVvHx1P2Ze672bTeGQFn6Uv5zmb1bAyX6CKpp+KIa2wRpNhaOvhwOwXPHo13pc98GIUjm2+NZfXdFEnl9F0PguH3jffeH9Zvn7TencVxMvn322B7d2dvf3ibHpBWsHl5XMbozUOJ5fJlfed53v/8BpPx+OG92TzHfF4dB42D8zem/bbva31du9MppHXfJ+eSvtb730aZpmqy7j2tb+lK07xG2SHTeOl3pv3b1sfwlvv+Ph4cfHKKWaqy9v+vuiprsZZFAYfyhz8ueAxRd9vr9fy7I5tWttkWGZKZuTQehfE8ehyEg5PrEVE/Ca7km/LXcrVjZ7N46tm2XuR3tIni/tZvpLG4yd5zrJl31k2SpxE0w9hvjiL95aNNJ0F56PkNl+o5ZtLn1UWYhWqrMpqIdlcVsqUR+HFx45VOW8uPN6BZ4qqFSm3/Kyf97Oumuv9n7ftKex4/Nj77ffX3r9f/P7Se/Xi5euffv3B+/nFDz+deD+evjzNJ/A8XbXDm8Bu0bxk6sXTKPEm8+s0D869zNIk9oL4PN28jCaXORRX197q3OnMwb53ln9xicJkHk28WRDF4fPxNEiagV3y99Jbeee1s+y1XBdz+xbtTtjlKWwT/lyt08t6/5mVe1bszUfD8CKYjxNvFk3TNSx8tO89+utgcHJyevqoYuMZ4hCHOMQhDnGIQxziEIc4xPnfxPHi+XX6n8DeMLQvesPg1hJF4ZA0pCENaUhDGtKQhjSkIQ1pSOOm+ZR9NetPNGfjeUgc4hCHOMQhDnGIQxziEIc4xCmDs/7dQGN/N/DVXPrdwI7JPmF7+vTw8OiIpCQlKUlJSlKSkpSkJCUpSUlKUpLuBqmfkQaJRNrOSDsd3x/0SEpSkpKUpCQlKUlJSlKSkpSkJCXpbpB2LOnzaCSQ+kcZqTH9fqdDUpKSlKQkJSlJSUpSkpKUpCQlKUl3g/TQkr6+mkukg4z0KB3d70lKUpKSlKQkJSlJSUpSkpKUpCQl6W6Qdi3pv8KhRNrPSJ89Oznp90lKUpKSlKQkJSlJSUpSkpKUpCQl6W6Q9rK/TMxDibSXkZ6c9HokJSlJSUpSkpKUpCQlKUlJSlKSknRXSPuW9Jep5CzodzPSwcD3u12SkpSkJCUpSUlKUpKSlKQkJSlJSVob6QplGAWfmlvFblrJKBmHr66CWdhKwpuk+ejH6TyKt2Pc3j/y2eg6nMSj6WQcxpnCFonHj72nw6EXeJmS92mUXHnx9Dr0hp0tR8YfL1vBbBZOhs2Gjd3Y23LAarSCJImajZvGvtdrFzzoNj3Iz39QnNyOwwXeQTA5v5pG6fGNcXhRgHapcTGdJAefwtHlVWI1zqbjYX6Nxb3559N/Li7wy/AqDBLvxfm59+r86tGe6yZ99zg+j0az5O/ie757PBx9/PK0eIwslmp5o+Fx49xm8El60sFoEkbv/H6/4WWX4rgxHMWzcXD7ZDQZp3MHZ+Pp+YdvGzJgqro4By+5naXH26vx+H3wMVi86jzSjo9BZLPNO/aGo+vZOGxNwk+vPl42G3/9AuS+d9huZ/+ztXys7jBIglT4zR+NcXAWjhtPGsPwIpiPE28WTS9G47Cxv5h5d9N4Ylrt/cbHYDwPG096R62jO2NwtN84t2tOqpAuIycnp6eNz/u5VP1KVDuVqB5WotqtRLVXiWq/EtVBJapHlaiadjWy1VSXqaa8TDX1ZaopMFNNhZlqSsxUU2OmmiIz1VSZX02V+RX1sGqqzK+mynxFlXnx/Pp642e8S+wQonBYQDTntS0mmvPKFhPNeV2LieZcu4qJ5ly5ionmXLeKieZctYqJ5lyzionm3RgUVK2kpvJuCwqqVlJVeTcFBVUrqau8W4KCqpVUVt4NQUHVSmor73agoGo1/aqS2sq7FyioWra2Po0miXYbcGbfkF8152UtqJrzshZUzXlZC6rmXLIKquZcsgqq5lyyCqrmXLIKquZcsgqq5t0PFJWtprry7giKylZTX3n3BEVlq6mwvLuCorLV1FjefUFR2WqqLO/OoKhsRT2smirLuzkoKluoyt7m+cBh+dmgd+xNwk+rDzSyzzGa8cfL/ewDia2fXKw+YIzD5PvpfDKMm932vmdMd9/r2H/53XyfftykGOvPTYfDkyAJL6fR7dObUbz4gG59KXJ8ipkKvIiGYfRybj8vy32g5bjd5PglDOJ5FC4w7Ed+y1ug/Vw2+yBpM9SrMBqF8RI3jbS8IbPxNGnZT7e2hoy/dN7bSeNWlnez6ThIRtNJCtWIk3B2cBZeTKOwkS+Tfg4vw8lw84QWrzV7aRZ0bCbYD8OM/Z/lx55bPxFeybbeXYbJ6SSx1ycNcTGfnGekzT3vjxyfe1rCcH30m621YcfowmsmV6M4zWt7XL5Adtw5qJVev9Pg/Kr5H+Ciaiv85WeDS913s2k8soLP0pfznM1qWJkvUEXTT8WQVlijyTC0hXtg9gsevRrvyx54MQrHNt+ay2u6qJPLaDqfhUPvm2+8vyxfv2m9uwri5XpiC2zv7uztF2fTC9IKLi+f2xitcTi5TK687zzf+4fXeDoeN7wnm++Ix6PzsHlg9t603+5trbd7ZzKNvOb79FTa33rv0zDLVF3Gta/97dgzxW+QHTaNl3pv3r9tfQjT5e34eHHxyilmqsvb/r7oqa7GWRQGH8oc/LngMUXfb6/X8uyObVrbZFhmStYYW+8W3+kJh9m3euI32ZV8W+5Srm70bB5fNcvei/SWPlncz/KVNB4/yXOWLfvOslHiJJp+CPPFWby3bKTpLDgfJbf5Qi3fXPqsshCrUGVVVgvJ5rJSpjwKLz52rMp5c+HxDjxTVK1IueVn/byfddVc7/+8bU9hx+PH3m+/v/b+/eL3l96rFy9f//TrD97PL3746cT78fTlaT6B5+mqHd4EdovmJVMvnqYb6cn8Os2Dcy/bIsZeEJ+nm5fR5DKH4uraW507nTnY987yLy5RmMyjiTcLojh8Pp4GSTOwS/5eeivvvHaWvZbrYm7fot0JuzyFbcKf/wvfvfzTB7DLL1jaD1T/K18FJQ5xiEMc4hCHOMQhDnGIQ5ydx7n/BRdLFIVD0pCGNKQhDWlIQxrSkIY0pCGNm+beVwItjf2KH3GIQxziEIc4xCEOcYhDHOIQ57/oePg6vJ6FUZDMo9BrPt+j5+GD8jz8V2Az7scw+7+n12ejcJJ49pZZ58NwOE+v/4HXbz/fERPEwS6YIP7/ds5uJYEoisL3PUVPIJ3pz266qsseonSkIXXAkcC3D8sGR9rQnLUwh75zM8aO1Zes44agb3w0CeLnv57mSphMOZemnCtTzrUp58aUc2vKGZty7kw5HbuAFORqdHJVOrk6nVylTq5WJ1etk6vXyVXs5Gp24Wp2YfusdjW7cDW76NXs30v7OlH5mj4hJnyH8lV8Qkx47/N1e0JMeOfzlXpCTHjfBW2ekmPqcbzGBBmekmOqcrzDBMWdkmNqc7zABHGd8jlo6nO8vQQdnZJj6nO8uvIlc50YQSun5IRvj6COU3LC6y7o4ZSc8LoLCjglJ7zuiuZNCnI1Ot5girxNCnKVOl5iipJNCnL1Ot5jimhN+mR0NTteZYo+TQpyNTveZkjRBiFFY8yYMWPGjBkzZsyYMWPGjBkzZnxK482ofi9Xq2paPj1v/1CVRhdI8fd+E6T47UGK3+sgxUeK3+MgxT88SPEPD1L8ngcpPlL8Hw9SfHDAAQcccMABBxxwwAEHHHCGoJSEBhpooIEGGmiggQYaaKAZDs2/UVmCAw444IADDjjggAMOOODk/7w/kOI/VIty2VT1cl42DUr801Li16u388fZrJpU5XKyaUX4x1Xg7777YLL/9ffrr2ebvnvRPl7q6Wb7fF0v5vdnHxFizfY="
               },
               {
                  "name" : "annual_peak_electric_demand",
                  "units" : "kW",
                  "value" : 367.07203000000004
               },
               {
                  "name" : "first_year_capital_cost",
                  "units" : "$",
                  "value" : 0
               },
               {
                  "name" : "annual_utility_cost",
                  "units" : "$",
                  "value" : 108778.23
               },
               {
                  "name" : "total_lifecycle_cost",
                  "units" : "$",
                  "value" : 1821210.1200000001
               }
            ],
            "step_warnings" : [ "A table in Annual Overview section returned false and was skipped." ]
         }
      }
   ],
   "updated_at" : "20170710T194304Z",
   "weather_file" : "USA_CO_Denver.Intl.AP.725650_TMY3.epw"
}
