{
   "completed_at" : "20170710T190545Z",
   "completed_status" : "Success",
   "created_at" : "2017-07-10 19:03:49 +0000",
   "current_step" : 5,
   "description" : "",
   "eplusout_err" : "Program Version,EnergyPlus, Version 8.7.0-78a111df4a, YMD=2017.07.10 19:04,IDD_Version 8.7.0\n   ************* IDF Context for following error/warning message:\n   ************* Note -- lines truncated at 300 characters, if necessary...\n   *************      5 Building,\n   ************* indicated Name=NECB 2011-SmallOffice-NECB HDD Method-CAN_MB_Churchill.719130_CWEC.epw created: 2017-07-10 19:03:55 +0000\n   ************* Only last 1 lines before error line shown.....\n   *************      6   NECB 2011-SmallOffice-NECB HDD Method-CAN_MB_Churchill.719130_CWEC.epw created: 2017-07-10 19:03:55 +0000, !- Name\n   ** Warning ** IP: IDF line~6 Alpha Argument length exceeds maximum, will be truncated=  NECB 2011-SmallOffice-NECB HDD Method-CAN_MB_Churchill.719130_CWEC.epw created: 2017-07-10 19:03:55 +000\n   **   ~~~   ** Will be processed as Alpha=NECB 2011-SMALLOFFICE-NECB HDD METHOD-CAN_MB_CHURCHILL.719130_CWEC.EPW CREATED: 2017-07-10 19:03:55 +0000\n   ************* Beginning Zone Sizing Calculations\n   ** Warning ** ProcessScheduleInput: Schedule:Day:Interval=\"ECONOMIZER MAX OA FRACTION 100 PCT DEFAULT\", Blank Schedule Type Limits Name input -- will not be validated.\n   ** Warning ** ProcessScheduleInput: Schedule:Day:Interval=\"SCHEDULE DAY 1\", Blank Schedule Type Limits Name input -- will not be validated.\n   ** Warning ** ProcessScheduleInput: Schedule:Day:Interval=\"SCHEDULE DAY 10\", Blank Schedule Type Limits Name input -- will not be validated.\n   ** Warning ** ProcessScheduleInput: Schedule:Day:Interval=\"SCHEDULE DAY 11\", Blank Schedule Type Limits Name input -- will not be validated.\n   ** Warning ** ProcessScheduleInput: Schedule:Day:Interval=\"SCHEDULE DAY 12\", Blank Schedule Type Limits Name input -- will not be validated.\n   ** Warning ** ProcessScheduleInput: Schedule:Day:Interval=\"SCHEDULE DAY 13\", Blank Schedule Type Limits Name input -- will not be validated.\n   ** Warning ** ProcessScheduleInput: Schedule:Day:Interval=\"SCHEDULE DAY 14\", Blank Schedule Type Limits Name input -- will not be validated.\n   ** Warning ** ProcessScheduleInput: Schedule:Day:Interval=\"SCHEDULE DAY 15\", Blank Schedule Type Limits Name input -- will not be validated.\n   ** Warning ** ProcessScheduleInput: Schedule:Day:Interval=\"SCHEDULE DAY 16\", Blank Schedule Type Limits Name input -- will not be validated.\n   ** Warning ** ProcessScheduleInput: Schedule:Day:Interval=\"SCHEDULE DAY 17\", Blank Schedule Type Limits Name input -- will not be validated.\n   ** Warning ** ProcessScheduleInput: Schedule:Day:Interval=\"SCHEDULE DAY 18\", Blank Schedule Type Limits Name input -- will not be validated.\n   ** Warning ** ProcessScheduleInput: Schedule:Day:Interval=\"SCHEDULE DAY 19\", Blank Schedule Type Limits Name input -- will not be validated.\n   ** Warning ** ProcessScheduleInput: Schedule:Day:Interval=\"SCHEDULE DAY 2\", Blank Schedule Type Limits Name input -- will not be validated.\n   ** Warning ** ProcessScheduleInput: Schedule:Day:Interval=\"SCHEDULE DAY 20\", Blank Schedule Type Limits Name input -- will not be validated.\n   ** Warning ** ProcessScheduleInput: Schedule:Day:Interval=\"SCHEDULE DAY 21\", Blank Schedule Type Limits Name input -- will not be validated.\n   ** Warning ** ProcessScheduleInput: Schedule:Day:Interval=\"SCHEDULE DAY 5\", Blank Schedule Type Limits Name input -- will not be validated.\n   ** Warning ** ProcessScheduleInput: Schedule:Day:Interval=\"SCHEDULE DAY 6\", Blank Schedule Type Limits Name input -- will not be validated.\n   ** Warning ** ProcessScheduleInput: Schedule:Day:Interval=\"SCHEDULE DAY 7\", Blank Schedule Type Limits Name input -- will not be validated.\n   ** Warning ** ProcessScheduleInput: Schedule:Day:Interval=\"SCHEDULE DAY 8\", Blank Schedule Type Limits Name input -- will not be validated.\n   ** Warning ** ProcessScheduleInput: Schedule:Day:Interval=\"SCHEDULE DAY 9\", Blank Schedule Type Limits Name input -- will not be validated.\n   ** Warning ** ProcessScheduleInput: Schedule:Year=\"ECONOMIZER MAX OA FRACTION 100 PCT\", Blank Schedule Type Limits Name input -- will not be validated.\n   ** Warning ** ProcessScheduleInput: Schedule:Year=\"SCHEDULE RULESET 10\", Blank Schedule Type Limits Name input -- will not be validated.\n   ** Warning ** ProcessScheduleInput: Schedule:Year=\"SCHEDULE RULESET 11\", Blank Schedule Type Limits Name input -- will not be validated.\n   ** Warning ** ProcessScheduleInput: Schedule:Year=\"SCHEDULE RULESET 12\", Blank Schedule Type Limits Name input -- will not be validated.\n   ** Warning ** ProcessScheduleInput: Schedule:Year=\"SCHEDULE RULESET 13\", Blank Schedule Type Limits Name input -- will not be validated.\n   ** Warning ** ProcessScheduleInput: Schedule:Year=\"SCHEDULE RULESET 14\", Blank Schedule Type Limits Name input -- will not be validated.\n   ** Warning ** ProcessScheduleInput: Schedule:Year=\"SCHEDULE RULESET 15\", Blank Schedule Type Limits Name input -- will not be validated.\n   ** Warning ** ProcessScheduleInput: Schedule:Year=\"SCHEDULE RULESET 16\", Blank Schedule Type Limits Name input -- will not be validated.\n   ** Warning ** ProcessScheduleInput: Schedule:Year=\"SCHEDULE RULESET 17\", Blank Schedule Type Limits Name input -- will not be validated.\n   ** Warning ** ProcessScheduleInput: Schedule:Year=\"SCHEDULE RULESET 3\", Blank Schedule Type Limits Name input -- will not be validated.\n   ** Warning ** ProcessScheduleInput: Schedule:Year=\"SCHEDULE RULESET 4\", Blank Schedule Type Limits Name input -- will not be validated.\n   ** Warning ** ProcessScheduleInput: Schedule:Year=\"SCHEDULE RULESET 5\", Blank Schedule Type Limits Name input -- will not be validated.\n   ** Warning ** ProcessScheduleInput: Schedule:Year=\"SCHEDULE RULESET 6\", Blank Schedule Type Limits Name input -- will not be validated.\n   ** Warning ** ProcessScheduleInput: Schedule:Year=\"SCHEDULE RULESET 7\", Blank Schedule Type Limits Name input -- will not be validated.\n   ** Warning ** ProcessScheduleInput: Schedule:Year=\"SCHEDULE RULESET 8\", Blank Schedule Type Limits Name input -- will not be validated.\n   ** Warning ** ProcessScheduleInput: Schedule:Year=\"SCHEDULE RULESET 9\", Blank Schedule Type Limits Name input -- will not be validated.\n   ** Warning ** ProcessScheduleInput: Schedule:Constant=\"ALWAYS OFF DISCRETE\", Blank Schedule Type Limits Name input -- will not be validated.\n   ** Warning ** ProcessScheduleInput: Schedule:Constant=\"ALWAYS ON CONTINUOUS\", Blank Schedule Type Limits Name input -- will not be validated.\n   ** Warning ** CheckUsedConstructions: There are 22 nominally unused constructions in input.\n   **   ~~~   ** For explicit details on each unused construction, use Output:Diagnostics,DisplayExtraWarnings;\n   ************* Beginning System Sizing Calculations\n   ************* Beginning Plant Sizing Calculations\n   ** Warning ** GetDXCoils: Coil:Cooling:DX:SingleSpeed=\"COIL COOLING DX SINGLE SPEED 5 15KBTU/HR 14.0SEER\", invalid\n   **   ~~~   ** ...Part Load Fraction Correlation Curve Name = DXCOOL-NECB2011-REF-COOLPLFFPLR 4 has out of range value.\n   **   ~~~   ** ...Curve maximum must be <= 1.0, curve max at PLR = 0.99 is 1.015\n   **   ~~~   ** ...Setting curve maximum to 1.0 and simulation continues.\n   ** Warning ** GetDXCoils: Coil:Cooling:DX:SingleSpeed=\"COIL COOLING DX SINGLE SPEED 4 23KBTU/HR 14.0SEER\", invalid\n   **   ~~~   ** ...Part Load Fraction Correlation Curve Name = DXCOOL-NECB2011-REF-COOLPLFFPLR 3 has out of range value.\n   **   ~~~   ** ...Curve maximum must be <= 1.0, curve max at PLR = 0.99 is 1.015\n   **   ~~~   ** ...Setting curve maximum to 1.0 and simulation continues.\n   ** Warning ** GetDXCoils: Coil:Cooling:DX:SingleSpeed=\"COIL COOLING DX SINGLE SPEED 2 16KBTU/HR 14.0SEER\", invalid\n   **   ~~~   ** ...Part Load Fraction Correlation Curve Name = DXCOOL-NECB2011-REF-COOLPLFFPLR 1 has out of range value.\n   **   ~~~   ** ...Curve maximum must be <= 1.0, curve max at PLR = 0.99 is 1.015\n   **   ~~~   ** ...Setting curve maximum to 1.0 and simulation continues.\n   ** Warning ** GetDXCoils: Coil:Cooling:DX:SingleSpeed=\"COIL COOLING DX SINGLE SPEED 1 16KBTU/HR 14.0SEER\", invalid\n   **   ~~~   ** ...Part Load Fraction Correlation Curve Name = DXCOOL-NECB2011-REF-COOLPLFFPLR has out of range value.\n   **   ~~~   ** ...Curve maximum must be <= 1.0, curve max at PLR = 0.99 is 1.015\n   **   ~~~   ** ...Setting curve maximum to 1.0 and simulation continues.\n   ** Warning ** GetDXCoils: Coil:Cooling:DX:SingleSpeed=\"COIL COOLING DX SINGLE SPEED 3 17KBTU/HR 14.0SEER\", invalid\n   **   ~~~   ** ...Part Load Fraction Correlation Curve Name = DXCOOL-NECB2011-REF-COOLPLFFPLR 2 has out of range value.\n   **   ~~~   ** ...Curve maximum must be <= 1.0, curve max at PLR = 0.99 is 1.015\n   **   ~~~   ** ...Setting curve maximum to 1.0 and simulation continues.\n   ** Warning ** The Standard Ratings is calculated for Coil:Cooling:DX:SingleSpeed = COIL COOLING DX SINGLE SPEED 5 15KBTU/HR 14.0SEER but not at the AHRI test condition due to curve out of bound.\n   **   ~~~   **  Review the Standard Ratings calculations in the Engineering Reference for this coil type. Also, use Output:Diagnostics, DisplayExtraWarnings for further guidance.\n   ** Warning ** The Standard Ratings is calculated for Coil:Cooling:DX:SingleSpeed = COIL COOLING DX SINGLE SPEED 4 23KBTU/HR 14.0SEER but not at the AHRI test condition due to curve out of bound.\n   **   ~~~   **  Review the Standard Ratings calculations in the Engineering Reference for this coil type. Also, use Output:Diagnostics, DisplayExtraWarnings for further guidance.\n   ** Warning ** The Standard Ratings is calculated for Coil:Cooling:DX:SingleSpeed = COIL COOLING DX SINGLE SPEED 2 16KBTU/HR 14.0SEER but not at the AHRI test condition due to curve out of bound.\n   **   ~~~   **  Review the Standard Ratings calculations in the Engineering Reference for this coil type. Also, use Output:Diagnostics, DisplayExtraWarnings for further guidance.\n   ** Warning ** The Standard Ratings is calculated for Coil:Cooling:DX:SingleSpeed = COIL COOLING DX SINGLE SPEED 1 16KBTU/HR 14.0SEER but not at the AHRI test condition due to curve out of bound.\n   **   ~~~   **  Review the Standard Ratings calculations in the Engineering Reference for this coil type. Also, use Output:Diagnostics, DisplayExtraWarnings for further guidance.\n   ** Warning ** The Standard Ratings is calculated for Coil:Cooling:DX:SingleSpeed = COIL COOLING DX SINGLE SPEED 3 17KBTU/HR 14.0SEER but not at the AHRI test condition due to curve out of bound.\n   **   ~~~   **  Review the Standard Ratings calculations in the Engineering Reference for this coil type. Also, use Output:Diagnostics, DisplayExtraWarnings for further guidance.\n   ** Warning ** Check input. Pump nominal power or motor efficiency is set to 0, for pump=SERVICE WATER LOOP PUMP\n   ** Warning ** Output:Meter: invalid Name=\"GAS:FACILITY\" - not found.\n   ** Warning ** Output:Meter: invalid Name=\"DISTRICTCOOLING:FACILITY\" - not found.\n   ** Warning ** Output:Meter: invalid Name=\"DISTRICTHEATING:FACILITY\" - not found.\n   ** Warning ** Output:Meter:MeterFileOnly: invalid Name=\"GAS:FACILITY\" - not found.\n   ** Warning ** Output:Meter:MeterFileOnly: invalid Name=\"GAS:FACILITY\" - not found.\n   ** Warning ** Output:Meter:MeterFileOnly requested for \"Electricity:Facility\" (TimeStep), already on \"Output:Meter\". Will report to both eplusout.eso and eplusout.mtr\n   ************* Testing Individual Branch Integrity\n   ************* All Branches passed integrity testing\n   ************* Testing Individual Supply Air Path Integrity\n   ************* All Supply Air Paths passed integrity testing\n   ************* Testing Individual Return Air Path Integrity\n   ************* All Return Air Paths passed integrity testing\n   ************* No node connection errors were found.\n   ************* Beginning Simulation\n   ** Warning ** GetInputEconomicsTariff: UtilityCost:Tariff=\"NONEGAS\" missing meter\n   **   ~~~   ** Meter referenced is not present due to a lack of equipment that uses that energy source/meter:\"GAS:FACILITY\".\n   ** Warning ** CalcDoe2DXCoil: Coil:Cooling:DX:SingleSpeed \"COIL COOLING DX SINGLE SPEED 4 23KBTU/HR 14.0SEER\" - Air-cooled condenser inlet dry-bulb temperature below 0 C. Outdoor dry-bulb temperature = -22.35\n   **   ~~~   **  ... Occurrence info = RUN PERIOD 1, 01/02 06:03 - 06:05\n   **   ~~~   ** ... Operation at low ambient temperatures may require special performance curves.\n   ** Warning ** CalcDoe2DXCoil: Coil:Cooling:DX:SingleSpeed \"COIL COOLING DX SINGLE SPEED 2 16KBTU/HR 14.0SEER\" - Air-cooled condenser inlet dry-bulb temperature below 0 C. Outdoor dry-bulb temperature = -24.15\n   **   ~~~   **  ... Occurrence info = RUN PERIOD 1, 01/02 21:15 - 21:18\n   **   ~~~   ** ... Operation at low ambient temperatures may require special performance curves.\n   ** Warning ** CalcDoe2DXCoil: Coil:Cooling:DX:SingleSpeed \"COIL COOLING DX SINGLE SPEED 3 17KBTU/HR 14.0SEER\" - Air-cooled condenser inlet dry-bulb temperature below 0 C. Outdoor dry-bulb temperature = -24.15\n   **   ~~~   **  ... Occurrence info = RUN PERIOD 1, 01/02 21:15 - 21:18\n   **   ~~~   ** ... Operation at low ambient temperatures may require special performance curves.\n   ** Warning ** CalcDoe2DXCoil: Coil:Cooling:DX:SingleSpeed \"COIL COOLING DX SINGLE SPEED 2 16KBTU/HR 14.0SEER\" - Full load outlet air dry-bulb temperature < 2C. This indicates the possibility of coil frost/freeze. Outlet temperature = 1.05 C.\n   **   ~~~   **  ...Occurrence info = RUN PERIOD 1, 01/03 21:15 - 21:17\n   **   ~~~   ** ... Possible reasons for low outlet air dry-bulb temperatures are: This DX coil\n   **   ~~~   **    1) may have a low inlet air dry-bulb temperature. Inlet air temperature = 13.712 C.\n   **   ~~~   **    2) may have a low air flow rate per watt of cooling capacity. Check inputs.\n   **   ~~~   **    3) is used as part of a HX assisted cooling coil which uses a high sensible effectiveness. Check inputs.\n   ** Warning ** CalcDoe2DXCoil: Coil:Cooling:DX:SingleSpeed \"COIL COOLING DX SINGLE SPEED 3 17KBTU/HR 14.0SEER\" - Full load outlet air dry-bulb temperature < 2C. This indicates the possibility of coil frost/freeze. Outlet temperature = 1.55 C.\n   **   ~~~   **  ...Occurrence info = RUN PERIOD 1, 01/03 21:15 - 21:17\n   **   ~~~   ** ... Possible reasons for low outlet air dry-bulb temperatures are: This DX coil\n   **   ~~~   **    1) may have a low inlet air dry-bulb temperature. Inlet air temperature = 14.208 C.\n   **   ~~~   **    2) may have a low air flow rate per watt of cooling capacity. Check inputs.\n   **   ~~~   **    3) is used as part of a HX assisted cooling coil which uses a high sensible effectiveness. Check inputs.\n   ** Warning ** CalcDoe2DXCoil: Coil:Cooling:DX:SingleSpeed \"COIL COOLING DX SINGLE SPEED 1 16KBTU/HR 14.0SEER\" - Air-cooled condenser inlet dry-bulb temperature below 0 C. Outdoor dry-bulb temperature = -23.05\n   **   ~~~   **  ... Occurrence info = RUN PERIOD 1, 01/10 21:15 - 21:18\n   **   ~~~   ** ... Operation at low ambient temperatures may require special performance curves.\n   ** Warning ** CalcDoe2DXCoil: Coil:Cooling:DX:SingleSpeed \"COIL COOLING DX SINGLE SPEED 1 16KBTU/HR 14.0SEER\" - Full load outlet air dry-bulb temperature < 2C. This indicates the possibility of coil frost/freeze. Outlet temperature = -0.82 C.\n   **   ~~~   **  ...Occurrence info = RUN PERIOD 1, 01/10 21:15 - 21:18\n   **   ~~~   ** ... Possible reasons for low outlet air dry-bulb temperatures are: This DX coil\n   **   ~~~   **    1) may have a low inlet air dry-bulb temperature. Inlet air temperature = 11.838 C.\n   **   ~~~   **    2) may have a low air flow rate per watt of cooling capacity. Check inputs.\n   **   ~~~   **    3) is used as part of a HX assisted cooling coil which uses a high sensible effectiveness. Check inputs.\n   ** Warning ** CalcDoe2DXCoil: Coil:Cooling:DX:SingleSpeed \"COIL COOLING DX SINGLE SPEED 5 15KBTU/HR 14.0SEER\" - Air-cooled condenser inlet dry-bulb temperature below 0 C. Outdoor dry-bulb temperature = -9.15\n   **   ~~~   **  ... Occurrence info = RUN PERIOD 1, 01/20 21:15 - 21:18\n   **   ~~~   ** ... Operation at low ambient temperatures may require special performance curves.\n   ** Warning ** CalcDoe2DXCoil: Coil:Cooling:DX:SingleSpeed \"COIL COOLING DX SINGLE SPEED 5 15KBTU/HR 14.0SEER\" - Full load outlet air dry-bulb temperature < 2C. This indicates the possibility of coil frost/freeze. Outlet temperature = 0.63 C.\n   **   ~~~   **  ...Occurrence info = RUN PERIOD 1, 01/20 21:15 - 21:18\n   **   ~~~   ** ... Possible reasons for low outlet air dry-bulb temperatures are: This DX coil\n   **   ~~~   **    1) may have a low inlet air dry-bulb temperature. Inlet air temperature = 13.254 C.\n   **   ~~~   **    2) may have a low air flow rate per watt of cooling capacity. Check inputs.\n   **   ~~~   **    3) is used as part of a HX assisted cooling coil which uses a high sensible effectiveness. Check inputs.\n   ************* Simulation Error Summary *************\n   ************* There are 9 unused schedules in input.\n   ************* There are 9 unused week schedules in input.\n   ************* There are 14 unused day schedules in input.\n   ************* Use Output:Diagnostics,DisplayUnusedSchedules; to see them.\n   *************\n   ************* ===== Recurring Error Summary =====\n   ************* The following recurring error messages occurred.\n   *************\n   *************  ** Warning ** Plant loop exceeding upper temperature limit, PlantLoop=\"MAIN SERVICE WATER LOOP\"\n   *************  **   ~~~   **   This error occurred 39980 total times;\n   *************  **   ~~~   **   during Warmup 1170 times;\n   *************  **   ~~~   **   during Sizing 0 times.\n   *************  **   ~~~   **   Max=82.222222\n   *************\n   *************  ** Warning ** CalcDoe2DXCoil: Coil:Cooling:DX:SingleSpeed=\"COIL COOLING DX SINGLE SPEED 4 23KBTU/HR 14.0SEER\" - Low condenser dry-bulb temperature error continues...\n   *************  **   ~~~   **   This error occurred 698 total times;\n   *************  **   ~~~   **   during Warmup 0 times;\n   *************  **   ~~~   **   during Sizing 0 times.\n   *************  **   ~~~   **   Max=-1.387779E-017 [C]  Min=-37.925 [C]\n   *************\n   *************  ** Warning ** CalcDoe2DXCoil: Coil:Cooling:DX:SingleSpeed=\"COIL COOLING DX SINGLE SPEED 2 16KBTU/HR 14.0SEER\" - Low condenser dry-bulb temperature error continues...\n   *************  **   ~~~   **   This error occurred 855 total times;\n   *************  **   ~~~   **   during Warmup 0 times;\n   *************  **   ~~~   **   during Sizing 0 times.\n   *************  **   ~~~   **   Max=-5.551115E-017 [C]  Min=-37.25 [C]\n   *************\n   *************  ** Warning ** CalcDoe2DXCoil: Coil:Cooling:DX:SingleSpeed=\"COIL COOLING DX SINGLE SPEED 3 17KBTU/HR 14.0SEER\" - Low condenser dry-bulb temperature error continues...\n   *************  **   ~~~   **   This error occurred 943 total times;\n   *************  **   ~~~   **   during Warmup 0 times;\n   *************  **   ~~~   **   during Sizing 0 times.\n   *************  **   ~~~   **   Max=-2.500000E-002 [C]  Min=-37.25 [C]\n   *************\n   *************  ** Warning ** CalcDoe2DXCoil: Coil:Cooling:DX:SingleSpeed=\"COIL COOLING DX SINGLE SPEED 2 16KBTU/HR 14.0SEER\" - Full load outlet temperature indicates a possibility of frost/freeze error continues. Outlet air temperature statistics follow:\n   *************  **   ~~~   **   This error occurred 54 total times;\n   *************  **   ~~~   **   during Warmup 0 times;\n   *************  **   ~~~   **   during Sizing 0 times.\n   *************  **   ~~~   **   Max=1.997794  Min=0.230046\n   *************\n   *************  ** Warning ** CalcDoe2DXCoil: Coil:Cooling:DX:SingleSpeed=\"COIL COOLING DX SINGLE SPEED 3 17KBTU/HR 14.0SEER\" - Full load outlet temperature indicates a possibility of frost/freeze error continues. Outlet air temperature statistics follow:\n   *************  **   ~~~   **   This error occurred 28 total times;\n   *************  **   ~~~   **   during Warmup 0 times;\n   *************  **   ~~~   **   during Sizing 0 times.\n   *************  **   ~~~   **   Max=1.979849  Min=0.778684\n   *************\n   *************  ** Warning ** CalcDoe2DXCoil: Coil:Cooling:DX:SingleSpeed=\"COIL COOLING DX SINGLE SPEED 1 16KBTU/HR 14.0SEER\" - Low condenser dry-bulb temperature error continues...\n   *************  **   ~~~   **   This error occurred 485 total times;\n   *************  **   ~~~   **   during Warmup 0 times;\n   *************  **   ~~~   **   during Sizing 0 times.\n   *************  **   ~~~   **   Max=-5.000000E-002 [C]  Min=-27.5 [C]\n   *************\n   *************  ** Warning ** CalcDoe2DXCoil: Coil:Cooling:DX:SingleSpeed=\"COIL COOLING DX SINGLE SPEED 1 16KBTU/HR 14.0SEER\" - Full load outlet temperature indicates a possibility of frost/freeze error continues. Outlet air temperature statistics follow:\n   *************  **   ~~~   **   This error occurred 149 total times;\n   *************  **   ~~~   **   during Warmup 0 times;\n   *************  **   ~~~   **   during Sizing 0 times.\n   *************  **   ~~~   **   Max=1.992207  Min=-0.820094\n   *************\n   *************  ** Warning ** CalcDoe2DXCoil: Coil:Cooling:DX:SingleSpeed=\"COIL COOLING DX SINGLE SPEED 5 15KBTU/HR 14.0SEER\" - Low condenser dry-bulb temperature error continues...\n   *************  **   ~~~   **   This error occurred 381 total times;\n   *************  **   ~~~   **   during Warmup 0 times;\n   *************  **   ~~~   **   during Sizing 0 times.\n   *************  **   ~~~   **   Max=-5.000000E-002 [C]  Min=-15.975 [C]\n   *************\n   *************  ** Warning ** CalcDoe2DXCoil: Coil:Cooling:DX:SingleSpeed=\"COIL COOLING DX SINGLE SPEED 5 15KBTU/HR 14.0SEER\" - Full load outlet temperature indicates a possibility of frost/freeze error continues. Outlet air temperature statistics follow:\n   *************  **   ~~~   **   This error occurred 229 total times;\n   *************  **   ~~~   **   during Warmup 0 times;\n   *************  **   ~~~   **   during Sizing 0 times.\n   *************  **   ~~~   **   Max=1.996231  Min=-0.882458\n   *************\n   *************\n   ************* ===== Final Error Summary =====\n   ************* The following error categories occurred.  Consider correcting or noting.\n   ************* Nominally Unused Constructions\n   ************* ..The nominally unused constructions warning is provided to alert you to potential conditions that can cause\n   ************* ..extra time during simulation. Each construction is calculated by the algorithm indicated in the HeatBalanceAlgorithm\n   ************* ..object. You may remove the constructions indicated (when you use the DisplayExtraWarnings option).\n   *************\n   ************* EnergyPlus Warmup Error Summary. During Warmup: 0 Warning; 0 Severe Errors.\n   ************* EnergyPlus Sizing Error Summary. During Sizing: 39 Warning; 0 Severe Errors.\n   ************* EnergyPlus Completed Successfully-- 43860 Warning; 0 Severe Errors; Elapsed Time=00hr 00min 30.40sec\n",
   "file_format_version" : "0.0.1",
   "file_paths" : [ "../weather", "../seeds", "../seed" ],
   "hash" : "7C980426",
   "measure_paths" : [ "../measures" ],
   "name" : "LHS Autogenerated 646",
   "osa_id" : "4fef0e0f-5396-4c55-a6e1-2cd6803db3ab",
   "osd_id" : "e27b8413-97df-468e-b5e4-0d18d087419a",
   "run_directory" : "./run",
   "seed_file" : "seed.osm",
   "started_at" : "20170710T190353Z",
   "steps" : [
      {
         "arguments" : {
            "__SKIP__" : false,
            "building_type" : "SmallOffice",
            "climate_zone" : "NECB HDD Method",
            "epw_file" : "CAN_MB_Churchill.719130_CWEC.epw",
            "template" : "NECB 2011"
         },
         "measure_dir_name" : "create_prototype_building",
         "name" : "create_prototype_building",
         "result" : {
            "completed_at" : "20170710T190443Z",
            "measure_class_name" : "CreatePrototypeBuilding",
            "measure_display_name" : "Create Prototype Building",
            "measure_name" : "create_prototype_building",
            "measure_taxonomy" : "Whole Building.Space Types",
            "measure_type" : "ModelMeasure",
            "measure_uid" : "ae90fsd7-a651-467a-bc8d-29d310b0f937",
            "measure_version_id" : "c6ec5c18-5595-459f-a082-09a19c8c869c",
            "measure_version_modified" : "20170519T182315Z",
            "measure_xml_checksum" : "057E8D9D",
            "started_at" : "20170710T190355Z",
            "stderr" : "",
            "stdout" : "[OpenStudio.Measure] <0> OSArgumentVector is deprecated, use OpenStudio::Measure::OSArgumentVector instead.\n[openstudio.EpwFile] <0> Successive data points (1973-Jan-31 to 1982-Feb-01, ending on line 753) are greater than 1 day apart in EPW file '/usr/local/bundle/bundler/gems/openstudio-standards-f448df66933d/openstudio-standards/data/weather/CAN_MB_Churchill.719130_CWEC.epw'. Data will be treated as typical (TMY)\n[openstudio.setFileExtension] <0> Path p, '/usr/local/bundle/bundler/gems/openstudio-standards-f448df66933d/openstudio-standards/data/weather/CAN_MB_Churchill.719130_CWEC.ddy', has an unexpected file extension. Was expecting 'idf'.\n[openstudio.model.YearDescription] <1> 'UseWeatherFile' is not yet a supported option for YearDescription\n[openstudio.model.YearDescription] <1> 'UseWeatherFile' is not yet a supported option for YearDescription\n[openstudio.setFileExtension] <0> Path p, '/usr/local/bundle/bundler/gems/openstudio-standards-f448df66933d/openstudio-standards/data/weather/CAN_MB_Churchill.719130_CWEC.ddy', has an unexpected file extension. Was expecting 'idf'.\n[openstudio.model.YearDescription] <1> 'UseWeatherFile' is not yet a supported option for YearDescription\n[openstudio.model.YearDescription] <1> 'UseWeatherFile' is not yet a supported option for YearDescription\n[openstudio.EpwFile] <0> Successive data points (1973-Jan-31 to 1982-Feb-01, ending on line 753) are greater than 1 day apart in EPW file '/usr/local/bundle/bundler/gems/openstudio-standards-f448df66933d/openstudio-standards/data/weather/CAN_MB_Churchill.719130_CWEC.epw'. Data will be treated as typical (TMY)\n[openstudio.weather.Model] <0> Could not find ground temperatures; will use generic temperatures, which will skew results.\n[openstudio.setFileExtension] <0> Path p, '/usr/local/bundle/bundler/gems/openstudio-standards-f448df66933d/openstudio-standards/data/weather/CAN_MB_Churchill.719130_CWEC.ddy', has an unexpected file extension. Was expecting 'idf'.\n[openstudio.model.YearDescription] <1> 'UseWeatherFile' is not yet a supported option for YearDescription\n[openstudio.model.YearDescription] <1> 'UseWeatherFile' is not yet a supported option for YearDescription\n[openstudio.EpwFile] <0> Successive data points (1973-Jan-31 to 1982-Feb-01, ending on line 753) are greater than 1 day apart in EPW file '/usr/local/bundle/bundler/gems/openstudio-standards-f448df66933d/openstudio-standards/data/weather/CAN_MB_Churchill.719130_CWEC.epw'. Data will be treated as typical (TMY)\n[openstudio.setFileExtension] <0> Path p, '/usr/local/bundle/bundler/gems/openstudio-standards-f448df66933d/openstudio-standards/data/weather/CAN_MB_Churchill.719130_CWEC.ddy', has an unexpected file extension. Was expecting 'idf'.\n[openstudio.model.YearDescription] <1> 'UseWeatherFile' is not yet a supported option for YearDescription\n[openstudio.model.YearDescription] <1> 'UseWeatherFile' is not yet a supported option for YearDescription\n[openstudio.setFileExtension] <0> Path p, '/usr/local/bundle/bundler/gems/openstudio-standards-f448df66933d/openstudio-standards/data/weather/CAN_MB_Churchill.719130_CWEC.ddy', has an unexpected file extension. Was expecting 'idf'.\n[openstudio.model.YearDescription] <1> 'UseWeatherFile' is not yet a supported option for YearDescription\n[openstudio.model.YearDescription] <1> 'UseWeatherFile' is not yet a supported option for YearDescription\n[openstudio.EpwFile] <0> Successive data points (1973-Jan-31 to 1982-Feb-01, ending on line 753) are greater than 1 day apart in EPW file '/usr/local/bundle/bundler/gems/openstudio-standards-f448df66933d/openstudio-standards/data/weather/CAN_MB_Churchill.719130_CWEC.epw'. Data will be treated as typical (TMY)\n[openstudio.setFileExtension] <0> Path p, '/usr/local/bundle/bundler/gems/openstudio-standards-f448df66933d/openstudio-standards/data/weather/CAN_MB_Churchill.719130_CWEC.ddy', has an unexpected file extension. Was expecting 'idf'.\n[openstudio.model.YearDescription] <1> 'UseWeatherFile' is not yet a supported option for YearDescription\n[openstudio.model.YearDescription] <1> 'UseWeatherFile' is not yet a supported option for YearDescription\n[openstudio.setFileExtension] <0> Path p, '/usr/local/bundle/bundler/gems/openstudio-standards-f448df66933d/openstudio-standards/data/weather/CAN_MB_Churchill.719130_CWEC.ddy', has an unexpected file extension. Was expecting 'idf'.\n[openstudio.model.YearDescription] <1> 'UseWeatherFile' is not yet a supported option for YearDescription\n[openstudio.model.YearDescription] <1> 'UseWeatherFile' is not yet a supported option for YearDescription\n[utilities.idf.WorkspaceObject] <0> Object of type 'Schedule:Constant' and named 'Always Off Discrete', points to an object named OnOff 1 from field 1, but that object cannot be located.\n[utilities.idf.WorkspaceObject] <0> Object of type 'Schedule:Constant' and named 'Always On Continuous', points to an object named Fractional 1 from field 1, but that object cannot be located.\n[utilities.idf.WorkspaceObject] <0> Object of type 'Schedule:Constant' and named 'Always Off Discrete', points to an object named OnOff 1 from field 1, but that object cannot be located.\n[utilities.idf.WorkspaceObject] <0> Object of type 'Schedule:Constant' and named 'Always On Continuous', points to an object named Fractional 1 from field 1, but that object cannot be located.\n[openstudio.standards.Fan] <0> For Fan Constant Volume 1, there is no greater nominal HP.  Use the efficiency of the largest motor category.\n[openstudio.standards.Fan] <0> For Fan Constant Volume 2, there is no greater nominal HP.  Use the efficiency of the largest motor category.\n[openstudio.standards.Fan] <0> For Fan Constant Volume 3, there is no greater nominal HP.  Use the efficiency of the largest motor category.\n[openstudio.standards.Fan] <0> For Fan Constant Volume 4, there is no greater nominal HP.  Use the efficiency of the largest motor category.\n[openstudio.standards.Fan] <0> For Fan Constant Volume 5, there is no greater nominal HP.  Use the efficiency of the largest motor category.\n[openstudio.EpwFile] <0> Successive data points (1973-Jan-31 to 1982-Feb-01, ending on line 753) are greater than 1 day apart in EPW file '/usr/local/bundle/bundler/gems/openstudio-standards-f448df66933d/openstudio-standards/data/weather/CAN_MB_Churchill.719130_CWEC.epw'. Data will be treated as typical (TMY)\n[openstudio.setFileExtension] <0> Path p, '/usr/local/bundle/bundler/gems/openstudio-standards-f448df66933d/openstudio-standards/data/weather/CAN_MB_Churchill.719130_CWEC.ddy', has an unexpected file extension. Was expecting 'idf'.\n[openstudio.model.YearDescription] <1> 'UseWeatherFile' is not yet a supported option for YearDescription\n[openstudio.model.YearDescription] <1> 'UseWeatherFile' is not yet a supported option for YearDescription\n[openstudio.setFileExtension] <0> Path p, '/usr/local/bundle/bundler/gems/openstudio-standards-f448df66933d/openstudio-standards/data/weather/CAN_MB_Churchill.719130_CWEC.ddy', has an unexpected file extension. Was expecting 'idf'.\n[openstudio.model.YearDescription] <1> 'UseWeatherFile' is not yet a supported option for YearDescription\n[openstudio.model.YearDescription] <1> 'UseWeatherFile' is not yet a supported option for YearDescription\n[openstudio.EpwFile] <0> Successive data points (1973-Jan-31 to 1982-Feb-01, ending on line 753) are greater than 1 day apart in EPW file '/usr/local/bundle/bundler/gems/openstudio-standards-f448df66933d/openstudio-standards/data/weather/CAN_MB_Churchill.719130_CWEC.epw'. Data will be treated as typical (TMY)\n[openstudio.setFileExtension] <0> Path p, '/usr/local/bundle/bundler/gems/openstudio-standards-f448df66933d/openstudio-standards/data/weather/CAN_MB_Churchill.719130_CWEC.ddy', has an unexpected file extension. Was expecting 'idf'.\n[openstudio.model.YearDescription] <1> 'UseWeatherFile' is not yet a supported option for YearDescription\n[openstudio.model.YearDescription] <1> 'UseWeatherFile' is not yet a supported option for YearDescription\n[openstudio.setFileExtension] <0> Path p, '/usr/local/bundle/bundler/gems/openstudio-standards-f448df66933d/openstudio-standards/data/weather/CAN_MB_Churchill.719130_CWEC.ddy', has an unexpected file extension. Was expecting 'idf'.\n[openstudio.model.YearDescription] <1> 'UseWeatherFile' is not yet a supported option for YearDescription\n[openstudio.model.YearDescription] <1> 'UseWeatherFile' is not yet a supported option for YearDescription\n[openstudio.EpwFile] <0> Successive data points (1973-Jan-31 to 1982-Feb-01, ending on line 753) are greater than 1 day apart in EPW file '/usr/local/bundle/bundler/gems/openstudio-standards-f448df66933d/openstudio-standards/data/weather/CAN_MB_Churchill.719130_CWEC.epw'. Data will be treated as typical (TMY)\n[openstudio.setFileExtension] <0> Path p, '/usr/local/bundle/bundler/gems/openstudio-standards-f448df66933d/openstudio-standards/data/weather/CAN_MB_Churchill.719130_CWEC.ddy', has an unexpected file extension. Was expecting 'idf'.\n[openstudio.model.YearDescription] <1> 'UseWeatherFile' is not yet a supported option for YearDescription\n[openstudio.model.YearDescription] <1> 'UseWeatherFile' is not yet a supported option for YearDescription\n[openstudio.setFileExtension] <0> Path p, '/usr/local/bundle/bundler/gems/openstudio-standards-f448df66933d/openstudio-standards/data/weather/CAN_MB_Churchill.719130_CWEC.ddy', has an unexpected file extension. Was expecting 'idf'.\n[openstudio.model.YearDescription] <1> 'UseWeatherFile' is not yet a supported option for YearDescription\n[openstudio.model.YearDescription] <1> 'UseWeatherFile' is not yet a supported option for YearDescription\n[openstudio.EpwFile] <0> Successive data points (1973-Jan-31 to 1982-Feb-01, ending on line 753) are greater than 1 day apart in EPW file '/usr/local/bundle/bundler/gems/openstudio-standards-f448df66933d/openstudio-standards/data/weather/CAN_MB_Churchill.719130_CWEC.epw'. Data will be treated as typical (TMY)\n[openstudio.setFileExtension] <0> Path p, '/usr/local/bundle/bundler/gems/openstudio-standards-f448df66933d/openstudio-standards/data/weather/CAN_MB_Churchill.719130_CWEC.ddy', has an unexpected file extension. Was expecting 'idf'.\n[openstudio.model.YearDescription] <1> 'UseWeatherFile' is not yet a supported option for YearDescription\n[openstudio.model.YearDescription] <1> 'UseWeatherFile' is not yet a supported option for YearDescription\n[openstudio.setFileExtension] <0> Path p, '/usr/local/bundle/bundler/gems/openstudio-standards-f448df66933d/openstudio-standards/data/weather/CAN_MB_Churchill.719130_CWEC.ddy', has an unexpected file extension. Was expecting 'idf'.\n[openstudio.model.YearDescription] <1> 'UseWeatherFile' is not yet a supported option for YearDescription\n[openstudio.model.YearDescription] <1> 'UseWeatherFile' is not yet a supported option for YearDescription\n[openstudio.EpwFile] <0> Successive data points (1973-Jan-31 to 1982-Feb-01, ending on line 753) are greater than 1 day apart in EPW file '/usr/local/bundle/bundler/gems/openstudio-standards-f448df66933d/openstudio-standards/data/weather/CAN_MB_Churchill.719130_CWEC.epw'. Data will be treated as typical (TMY)\n[openstudio.setFileExtension] <0> Path p, '/usr/local/bundle/bundler/gems/openstudio-standards-f448df66933d/openstudio-standards/data/weather/CAN_MB_Churchill.719130_CWEC.ddy', has an unexpected file extension. Was expecting 'idf'.\n[openstudio.model.YearDescription] <1> 'UseWeatherFile' is not yet a supported option for YearDescription\n[openstudio.model.YearDescription] <1> 'UseWeatherFile' is not yet a supported option for YearDescription\n[openstudio.setFileExtension] <0> Path p, '/usr/local/bundle/bundler/gems/openstudio-standards-f448df66933d/openstudio-standards/data/weather/CAN_MB_Churchill.719130_CWEC.ddy', has an unexpected file extension. Was expecting 'idf'.\n[openstudio.model.YearDescription] <1> 'UseWeatherFile' is not yet a supported option for YearDescription\n[openstudio.model.YearDescription] <1> 'UseWeatherFile' is not yet a supported option for YearDescription\n[openstudio.standards.Fan] <0> For Fan Constant Volume 1, there is no greater nominal HP.  Use the efficiency of the largest motor category.\n[openstudio.standards.Fan] <0> For Fan Constant Volume 2, there is no greater nominal HP.  Use the efficiency of the largest motor category.\n[openstudio.standards.Fan] <0> For Fan Constant Volume 3, there is no greater nominal HP.  Use the efficiency of the largest motor category.\n[openstudio.standards.Fan] <0> For Fan Constant Volume 4, there is no greater nominal HP.  Use the efficiency of the largest motor category.\n[openstudio.standards.Fan] <0> For Fan Constant Volume 5, there is no greater nominal HP.  Use the efficiency of the largest motor category.\n",
            "step_errors" : [],
            "step_files" : [],
            "step_info" : [
               "Started adding geometry",
               "Finished adding geometry",
               "Started adding weather file for climate zone: NECB HDD Method.",
               "Template =",
               "Setting Attic to Space Function.- undefined -",
               "Setting Core_ZN to Space Function.Office - enclosed",
               "Setting Perimeter_ZN_1 to Space Function.Office - enclosed",
               "Setting Perimeter_ZN_2 to Space Function.Office - enclosed",
               "Setting Perimeter_ZN_3 to Space Function.Office - enclosed",
               "Setting Perimeter_ZN_4 to Space Function.Office - enclosed",
               "Started applying space types (loads)",
               "Space Function - undefined - had no ventilation specification, one has been created.",
               "Space Function - undefined - had no infiltration objects, one has been created.",
               "Space Function - undefined - set infiltration to 0.0 per ft^2 exterior surface area.",
               "Space Function - undefined - set infiltration schedule to Always On.",
               "Space Function Office - enclosed had no people, one has been created.",
               "Space Function Office - enclosed set occupancy to 4.65 people/1000 ft^2.",
               "Space Function Office - enclosed had no lights, one has been created.",
               "Space Function Office - enclosed set LPD to 1.105536975 W/ft^2.",
               "Space Function Office - enclosed had no electric equipment, one has been created.",
               "Space Function Office - enclosed set electric EPD to 0.696767001 W/ft^2.",
               "Space Function Office - enclosed had no ventilation specification, one has been created.",
               "Space Function Office - enclosed set ventilation per area to 0.085 cfm/ft^2.",
               "Space Function Office - enclosed had no infiltration objects, one has been created.",
               "Space Function Office - enclosed set infiltration to 0.0 per ft^2 exterior surface area.",
               "Space Function Office - enclosed set occupancy schedule to NECB-A-Occupancy.",
               "Space Function Office - enclosed set occupant activity schedule to NECB-Activity.",
               "Space Function Office - enclosed set lighting schedule to NECB-A-Lighting.",
               "Space Function Office - enclosed set electric equipment schedule to NECB-A-Electric-Equipment.",
               "Space Function Office - enclosed set infiltration schedule to Always On.",
               "Space Function Office - enclosed set heating setpoint schedule to NECB-A-Thermostat Setpoint-Heating.",
               "Space Function Office - enclosed set cooling setpoint schedule to NECB-A-Thermostat Setpoint-Cooling.",
               "Finished applying space types (loads)",
               "For NECB 2011, no exterior wall area was found, no infiltration will be added.",
               "Started applying constructions",
               "Adding construction set: NECB 2011-NECB HDD Method-Office--is_residentialNo",
               "Adding construction Typical Insulated Exterior Mass Floor R-15.63.",
               "Adding construction Typical Insulated Exterior Mass Wall R-12.5.",
               "Adding construction Typical Insulated Metal Building Roof R-20.41.",
               "Adding construction Typical Interior Floor.",
               "Adding construction Typical Interior Wall.",
               "Adding construction Typical Interior Ceiling.",
               "Adding construction Typical Insulated Carpeted 6in Slab Floor.",
               "Adding construction U 0.55 SHGC 0.31 Dbl Ref-D Tint 6mm/6mm Air.",
               "Adding construction Typical Insulated Metal Door R-1.43.",
               "Adding construction U 0.35 SHGC 0.35 Dbl LoE (e2-.1) Tint 6mm/13mm Air.",
               "Adding construction Typical Overhead Door R-2.0.",
               "Adding construction U 0.48 SHGC 0.40 Dbl Ref-D Clr 6mm/13mm.",
               "Adding construction Typical Interior Window.",
               "Adding construction Typical Interior Door.",
               "Adding construction Typical Interior Partition.",
               "Finished applying constructions",
               "WWR NonRes = 0%; window = 0 ft2, wall = 0 ft2.",
               "WWR Res = 0%; window = 0 ft2, wall = 0 ft2.",
               "WWR Semiheated = 0%; window = 0 ft2, wall = 0 ft2.",
               "Reducing the size of all windows (by raising sill height) to reduce window area down to the limit of 40%.",
               "The skylight to roof ratios (SRRs) are: NonRes: 0%, Res: 0%.",
               "Started creating thermal zones",
               "Finished creating thermal zones",
               "Running simulation /mnt/openstudio/analysis_4fef0e0f-5396-4c55-a6e1-2cd6803db3ab/data_point_e27b8413-97df-468e-b5e4-0d18d087419a/run/000_create_prototype_building/output/SmallOffice-NECB 2011-NECB HDD Method-CAN_MB_Churchill.719130_CWEC.epw/SR0.",
               "Finished run.",
               "Started Adding HVAC",
               "Finished adding HVAC",
               "Started Adding Service Water Heating",
               "Adding service water loop.",
               "Adding water heater.",
               "Template =",
               "Finished adding Service Water Heating",
               "Set sizing factors to 1.3 for heating and 1.3 for cooling.",
               "Running simulation /mnt/openstudio/analysis_4fef0e0f-5396-4c55-a6e1-2cd6803db3ab/data_point_e27b8413-97df-468e-b5e4-0d18d087419a/run/000_create_prototype_building/output/SmallOffice-NECB 2011-NECB HDD Method-CAN_MB_Churchill.719130_CWEC.epw/SR1.",
               "Finished run.",
               "Started applying multizone vav OA sizing.",
               "Finished applying multizone vav OA sizing.",
               "Started applying prototype HVAC assumptions.",
               "For Fan Constant Volume 1: allowed_hp = 1.01HP; motor eff = 61.5%; total fan eff = 40% based on 600 cfm.",
               "For Fan Constant Volume 2: allowed_hp = 1.01HP; motor eff = 61.5%; total fan eff = 40% based on 582 cfm.",
               "For Fan Constant Volume 3: allowed_hp = 1.01HP; motor eff = 61.5%; total fan eff = 40% based on 639 cfm.",
               "For Fan Constant Volume 4: allowed_hp = 1.01HP; motor eff = 61.5%; total fan eff = 40% based on 853 cfm.",
               "For Fan Constant Volume 5: allowed_hp = 1.01HP; motor eff = 61.5%; total fan eff = 40% based on 574 cfm.",
               "Sp-Perimeter_ZN_1 Sys-3 Flr-1 Sch-A HPlcmt-south ZN NECB System 3 PSZ does not require an economizer because the total cooling capacity of 22745 Btu/hr is less than the minimum capacity of 68243 Btu/hr.",
               "Sp-Perimeter_ZN_4 Sys-3 Flr-1 Sch-A HPlcmt-west ZN NECB System 3 PSZ does not require an economizer because the total cooling capacity of 17034 Btu/hr is less than the minimum capacity of 68243 Btu/hr.",
               "Sp-Perimeter_ZN_3 Sys-3 Flr-1 Sch-A HPlcmt-north ZN NECB System 3 PSZ does not require an economizer because the total cooling capacity of 15997 Btu/hr is less than the minimum capacity of 68243 Btu/hr.",
               "Sp-Perimeter_ZN_2 Sys-3 Flr-1 Sch-A HPlcmt-east ZN NECB System 3 PSZ does not require an economizer because the total cooling capacity of 15523 Btu/hr is less than the minimum capacity of 68243 Btu/hr.",
               "Sp-Core_ZN Sys-3 Flr-1 Sch-A HPlcmt-core ZN NECB System 3 PSZ does not require an economizer because the total cooling capacity of 15290 Btu/hr is less than the minimum capacity of 68243 Btu/hr.",
               "Finished applying prototype HVAC assumptions.",
               "Started applying HVAC efficiency standards.",
               "For Sp-Core_ZN Sys-3 Flr-1 Sch-A HPlcmt-core ZN NECB System 3 PSZ, ERV not required based on 0% OA flow, design supply air flow of 574cfm, and climate zone NECB HDD Method.",
               "For Sp-Core_ZN Sys-3 Flr-1 Sch-A HPlcmt-core ZN NECB System 3 PSZ, ERV not required based on exhaust heat content.",
               "For NECB 2011 NECB HDD Method:  Sp-Core_ZN Sys-3 Flr-1 Sch-A HPlcmt-core ZN NECB System 3 PSZ: DCV is not required for any system.",
               "For Sp-Core_ZN Sys-3 Flr-1 Sch-A HPlcmt-core ZN NECB System 3 PSZ: Unoccupied fan shutoff not required because system fan HP of 0.58 HP is less than the minimum threshold of 0.75 HP.",
               "For Sp-Core_ZN Sys-3 Flr-1 Sch-A HPlcmt-core ZN NECB System 3 PSZ: Setting motorized OA damper schedule to Always On Discrete.",
               "For Sp-Perimeter_ZN_1 Sys-3 Flr-1 Sch-A HPlcmt-south ZN NECB System 3 PSZ, ERV not required based on 0% OA flow, design supply air flow of 853cfm, and climate zone NECB HDD Method.",
               "For Sp-Perimeter_ZN_1 Sys-3 Flr-1 Sch-A HPlcmt-south ZN NECB System 3 PSZ, ERV not required based on exhaust heat content.",
               "For NECB 2011 NECB HDD Method:  Sp-Perimeter_ZN_1 Sys-3 Flr-1 Sch-A HPlcmt-south ZN NECB System 3 PSZ: DCV is not required for any system.",
               "For Sp-Perimeter_ZN_1 Sys-3 Flr-1 Sch-A HPlcmt-south ZN NECB System 3 PSZ: Annual occupied hours = 2860 hr/yr, assuming a 0.15 occupancy threshold.  This schedule will be used as the HVAC operation schedule.",
               "For Sp-Perimeter_ZN_1 Sys-3 Flr-1 Sch-A HPlcmt-south ZN NECB System 3 PSZ: Setting motorized OA damper schedule to Sp-Perimeter_ZN_1 Sys-3 Flr-1 Sch-A HPlcmt-south ZN NECB System 3 PSZ Occ Sch.",
               "For Sp-Perimeter_ZN_2 Sys-3 Flr-1 Sch-A HPlcmt-east ZN NECB System 3 PSZ, ERV not required based on 0% OA flow, design supply air flow of 582cfm, and climate zone NECB HDD Method.",
               "For Sp-Perimeter_ZN_2 Sys-3 Flr-1 Sch-A HPlcmt-east ZN NECB System 3 PSZ, ERV not required based on exhaust heat content.",
               "For NECB 2011 NECB HDD Method:  Sp-Perimeter_ZN_2 Sys-3 Flr-1 Sch-A HPlcmt-east ZN NECB System 3 PSZ: DCV is not required for any system.",
               "For Sp-Perimeter_ZN_2 Sys-3 Flr-1 Sch-A HPlcmt-east ZN NECB System 3 PSZ: Unoccupied fan shutoff not required because system fan HP of 0.59 HP is less than the minimum threshold of 0.75 HP.",
               "For Sp-Perimeter_ZN_2 Sys-3 Flr-1 Sch-A HPlcmt-east ZN NECB System 3 PSZ: Setting motorized OA damper schedule to Always On Discrete.",
               "For Sp-Perimeter_ZN_3 Sys-3 Flr-1 Sch-A HPlcmt-north ZN NECB System 3 PSZ, ERV not required based on 0% OA flow, design supply air flow of 600cfm, and climate zone NECB HDD Method.",
               "For Sp-Perimeter_ZN_3 Sys-3 Flr-1 Sch-A HPlcmt-north ZN NECB System 3 PSZ, ERV not required based on exhaust heat content.",
               "For NECB 2011 NECB HDD Method:  Sp-Perimeter_ZN_3 Sys-3 Flr-1 Sch-A HPlcmt-north ZN NECB System 3 PSZ: DCV is not required for any system.",
               "For Sp-Perimeter_ZN_3 Sys-3 Flr-1 Sch-A HPlcmt-north ZN NECB System 3 PSZ: Unoccupied fan shutoff not required because system fan HP of 0.61 HP is less than the minimum threshold of 0.75 HP.",
               "For Sp-Perimeter_ZN_3 Sys-3 Flr-1 Sch-A HPlcmt-north ZN NECB System 3 PSZ: Setting motorized OA damper schedule to Always On Discrete.",
               "For Sp-Perimeter_ZN_4 Sys-3 Flr-1 Sch-A HPlcmt-west ZN NECB System 3 PSZ, ERV not required based on 0% OA flow, design supply air flow of 639cfm, and climate zone NECB HDD Method.",
               "For Sp-Perimeter_ZN_4 Sys-3 Flr-1 Sch-A HPlcmt-west ZN NECB System 3 PSZ, ERV not required based on exhaust heat content.",
               "For NECB 2011 NECB HDD Method:  Sp-Perimeter_ZN_4 Sys-3 Flr-1 Sch-A HPlcmt-west ZN NECB System 3 PSZ: DCV is not required for any system.",
               "For Sp-Perimeter_ZN_4 Sys-3 Flr-1 Sch-A HPlcmt-west ZN NECB System 3 PSZ: Unoccupied fan shutoff not required because system fan HP of 0.65 HP is less than the minimum threshold of 0.75 HP.",
               "For Sp-Perimeter_ZN_4 Sys-3 Flr-1 Sch-A HPlcmt-west ZN NECB System 3 PSZ: Setting motorized OA damper schedule to Always On Discrete.",
               "For Fan Constant Volume 1: motor nameplate = 0.37380478716785004HP, motor eff = 61.5%.",
               "For Fan Constant Volume 2: motor nameplate = 0.3627348264472437HP, motor eff = 61.5%.",
               "For Fan Constant Volume 3: motor nameplate = 0.39804642930240025HP, motor eff = 61.5%.",
               "For Fan Constant Volume 4: motor nameplate = 0.5314828403409386HP, motor eff = 61.5%.",
               "For Fan Constant Volume 5: motor nameplate = 0.35729573737822456HP, motor eff = 61.5%.",
               "For Service Water Loop Pump: brake hp = 0.0HP, motor nameplate = 0.1HP, motor eff = 70.0%.",
               "For NECB 2011: Coil Cooling DX Single Speed 1: AirCooled Electric Resistance or None Single Package Capacity = 16kBtu/hr; SEER = 14.0",
               "For NECB 2011: Coil Cooling DX Single Speed 2: AirCooled Electric Resistance or None Single Package Capacity = 16kBtu/hr; SEER = 14.0",
               "For NECB 2011: Coil Cooling DX Single Speed 3: AirCooled Electric Resistance or None Single Package Capacity = 17kBtu/hr; SEER = 14.0",
               "For NECB 2011: Coil Cooling DX Single Speed 4: AirCooled Electric Resistance or None Single Package Capacity = 23kBtu/hr; SEER = 14.0",
               "For NECB 2011: Coil Cooling DX Single Speed 5: AirCooled Electric Resistance or None Single Package Capacity = 15kBtu/hr; SEER = 14.0",
               "For NECB 2011: 40.0gal Electricity Water Heater - 40kBtu/hr 1.0 Therm Eff; thermal efficiency = 1.0, skin-loss UA = 3Btu/hr",
               "Finished applying HVAC efficiency standards.",
               "Started adding daylighting controls.",
               "For Attic, daylighting control not applicable because no exterior fenestration is present.",
               "For Core_ZN, daylighting control not applicable because no exterior fenestration is present.",
               "Finished adding daylighting controls.",
               "Total Time = 48sec."
            ],
            "step_result" : "Success",
            "step_values" : [
               {
                  "name" : "building_type",
                  "value" : "SmallOffice"
               },
               {
                  "name" : "template",
                  "value" : "NECB 2011"
               },
               {
                  "name" : "climate_zone",
                  "value" : "NECB HDD Method"
               },
               {
                  "name" : "epw_file",
                  "value" : "CAN_MB_Churchill.719130_CWEC.epw"
               }
            ],
            "step_warnings" : [
               "[openstudio.EpwFile] Successive data points (1973-Jan-31 to 1982-Feb-01, ending on line 753) are greater than 1 day apart in EPW file '/usr/local/bundle/bundler/gems/openstudio-standards-f448df66933d/openstudio-standards/data/weather/CAN_MB_Churchill.719130_CWEC.epw'. Data will be treated as typical (TMY)",
               "[openstudio.EpwFile] Successive data points (1973-Jan-31 to 1982-Feb-01, ending on line 753) are greater than 1 day apart in EPW file '/usr/local/bundle/bundler/gems/openstudio-standards-f448df66933d/openstudio-standards/data/weather/CAN_MB_Churchill.719130_CWEC.epw'. Data will be treated as typical (TMY)",
               "[openstudio.weather.Model] Could not find ground temperatures; will use generic temperatures, which will skew results.",
               "[openstudio.EpwFile] Successive data points (1973-Jan-31 to 1982-Feb-01, ending on line 753) are greater than 1 day apart in EPW file '/usr/local/bundle/bundler/gems/openstudio-standards-f448df66933d/openstudio-standards/data/weather/CAN_MB_Churchill.719130_CWEC.epw'. Data will be treated as typical (TMY)",
               "[openstudio.EpwFile] Successive data points (1973-Jan-31 to 1982-Feb-01, ending on line 753) are greater than 1 day apart in EPW file '/usr/local/bundle/bundler/gems/openstudio-standards-f448df66933d/openstudio-standards/data/weather/CAN_MB_Churchill.719130_CWEC.epw'. Data will be treated as typical (TMY)",
               "[openstudio.standards.Fan] For Fan Constant Volume 1, there is no greater nominal HP.  Use the efficiency of the largest motor category.",
               "[openstudio.standards.Fan] For Fan Constant Volume 2, there is no greater nominal HP.  Use the efficiency of the largest motor category.",
               "[openstudio.standards.Fan] For Fan Constant Volume 3, there is no greater nominal HP.  Use the efficiency of the largest motor category.",
               "[openstudio.standards.Fan] For Fan Constant Volume 4, there is no greater nominal HP.  Use the efficiency of the largest motor category.",
               "[openstudio.standards.Fan] For Fan Constant Volume 5, there is no greater nominal HP.  Use the efficiency of the largest motor category.",
               "[openstudio.EpwFile] Successive data points (1973-Jan-31 to 1982-Feb-01, ending on line 753) are greater than 1 day apart in EPW file '/usr/local/bundle/bundler/gems/openstudio-standards-f448df66933d/openstudio-standards/data/weather/CAN_MB_Churchill.719130_CWEC.epw'. Data will be treated as typical (TMY)",
               "[openstudio.EpwFile] Successive data points (1973-Jan-31 to 1982-Feb-01, ending on line 753) are greater than 1 day apart in EPW file '/usr/local/bundle/bundler/gems/openstudio-standards-f448df66933d/openstudio-standards/data/weather/CAN_MB_Churchill.719130_CWEC.epw'. Data will be treated as typical (TMY)",
               "[openstudio.EpwFile] Successive data points (1973-Jan-31 to 1982-Feb-01, ending on line 753) are greater than 1 day apart in EPW file '/usr/local/bundle/bundler/gems/openstudio-standards-f448df66933d/openstudio-standards/data/weather/CAN_MB_Churchill.719130_CWEC.epw'. Data will be treated as typical (TMY)",
               "[openstudio.EpwFile] Successive data points (1973-Jan-31 to 1982-Feb-01, ending on line 753) are greater than 1 day apart in EPW file '/usr/local/bundle/bundler/gems/openstudio-standards-f448df66933d/openstudio-standards/data/weather/CAN_MB_Churchill.719130_CWEC.epw'. Data will be treated as typical (TMY)",
               "[openstudio.EpwFile] Successive data points (1973-Jan-31 to 1982-Feb-01, ending on line 753) are greater than 1 day apart in EPW file '/usr/local/bundle/bundler/gems/openstudio-standards-f448df66933d/openstudio-standards/data/weather/CAN_MB_Churchill.719130_CWEC.epw'. Data will be treated as typical (TMY)",
               "[openstudio.standards.Fan] For Fan Constant Volume 1, there is no greater nominal HP.  Use the efficiency of the largest motor category.",
               "[openstudio.standards.Fan] For Fan Constant Volume 2, there is no greater nominal HP.  Use the efficiency of the largest motor category.",
               "[openstudio.standards.Fan] For Fan Constant Volume 3, there is no greater nominal HP.  Use the efficiency of the largest motor category.",
               "[openstudio.standards.Fan] For Fan Constant Volume 4, there is no greater nominal HP.  Use the efficiency of the largest motor category.",
               "[openstudio.standards.Fan] For Fan Constant Volume 5, there is no greater nominal HP.  Use the efficiency of the largest motor category."
            ]
         }
      },
      {
         "arguments" : {
            "__SKIP__" : false
         },
         "measure_dir_name" : "view_model",
         "name" : "view_model",
         "result" : {
            "completed_at" : "20170710T190444Z",
            "measure_class_name" : "ViewModel",
            "measure_display_name" : "ViewModel",
            "measure_name" : "view_model",
            "measure_taxonomy" : "Reporting.QAQC",
            "measure_type" : "ModelMeasure",
            "measure_uid" : "f4669f10-fda5-489d-8e1c-7ca3c2d40378",
            "measure_version_id" : "f4975c5f-7c25-42a2-927b-02d99b4427ef",
            "measure_version_modified" : "20170526T150340Z",
            "measure_xml_checksum" : "1E1F8B97",
            "started_at" : "20170710T190443Z",
            "stderr" : "",
            "stdout" : "[OpenStudio.Measure] <0> OSArgumentVector is deprecated, use OpenStudio::Measure::OSArgumentVector instead.\n",
            "step_errors" : [],
            "step_files" : [
               "/mnt/openstudio/analysis_4fef0e0f-5396-4c55-a6e1-2cd6803db3ab/data_point_e27b8413-97df-468e-b5e4-0d18d087419a/run/001_view_model/report.html",
               "/mnt/openstudio/analysis_4fef0e0f-5396-4c55-a6e1-2cd6803db3ab/data_point_e27b8413-97df-468e-b5e4-0d18d087419a/run/001_view_model/report.json"
            ],
            "step_final_condition" : "Report written to <a href='file:////mnt/openstudio/analysis_4fef0e0f-5396-4c55-a6e1-2cd6803db3ab/data_point_e27b8413-97df-468e-b5e4-0d18d087419a/run/001_view_model/report.html'>report.html</a>.",
            "step_info" : [ "No changes made to the model." ],
            "step_result" : "NA",
            "step_values" : [
               {
                  "name" : "view_model_html_zip",
[...]
hsAW2vIVtA27LBFtC2arAFtC0abAFtawZbQNuSwRbQepvKF7H2tcZ6m8oXsfbVxnqbyhex9vXGepvKF7H2Fcd6m8oXsfY1x3qbyhex/v1N7WuO9TaVLyLHmuP0UEeZLeviGRDm4LZXt5Lgthe6kuC217yS4LYlp5LgttWnkuC2989WEtz2LttKgtvei1tJcOsb46uJbntnbzXRbW+zrya67d341US3vWm/mui29/ZXE932EYBqon/Tlc76gYJqon/Ttc768YRqon/Ttc56u15N9G+6o7Pexi+jf7B5CjN/Zlqciom6Xz7kmT3b2Yzvhq3sKc2Nj3MuH7yOVfJDOJsM4mav0xJS9lqiq//m9eweCX1IMR6fLR8MzvxEDcNo/uohiBcPLj+OhsXT3anA22igoncz/Ryx9YGaY77O8avy41mkFhj6Uej8KlCfV88erl0PdaGiQMU5bhopvyDTcZi09RO/G0PGXzvvzaRxO7sZZxqO/SQIJylUI07UdPda3YSRathl0i9qqCaD9RNafNY8SLOgqzNBPyEs9R/54+Abn5Rfyravhio5nyR6fNIQN7NJPyNt7og/LZ4H14Tq8ejLjXNDt+BGNJNREKd5rY+zC6TbykHtdPzO/f6o+V9gV7Ulfv7AdK57NQ3jQAu+Tj+2OZtl0zJfoYrCezekJVYwGSg9cXdly/HoZbste+BNoMY635r5mC7myTAKZ1M1EN99J/6Wf/7Qvhr5cb6e6Am2s9o7/2pvOiBtfzh8o2O0x2oyTEbipfDEv0Tj1XjcECfr34jHQV81d+XOZefDzsb59uRMwkg0b9NT6XwvbtMwearmcfVn/zgV0v0C6abTONe7vP3Q/qjS5e30dDF45RQz1fyy37qe6rJdR8r/WObgz47HuH5fj1d+dqc6rXUy5JmSFcb21cL3RA3OdMmNL7OR/FBuKJcXejqLR82y1yK9pCeL61l+Jo3HJzZn2dbfLBslTqLwo7KLs/hu2Ujh1O+nuy27UPmXS59VFmIZqqzKciFZX1bKTA/nxUe35XReX3jSvap0VXOZbvasn1tZVbX6/udNewrd9vbE73+8F/95+8c7cfH23fuff/tR/PL2x5/PxE/n787tBN6kq7Z68PUWTSShiMN0Iz2ZfUrzoC+yLWIs/Lifbl6CydBCcTn2WmelMvstcW2/uEQqmUUTMfWjWL0Zh37S9PWSv5NeypXPrrPPrAZz8xZtJWx+CpuEP38Df6ovnkrPjKcWT5l/E7ss4AAHOMABDnCAAxzgAAc4wNl6nKeuH5ooUgPQgAY0oAENaEADGtCABjSgAU0xzROfJE2jfY+AAxzgAAc4wAEOcIADHOAABzhlcOw9wLLfsC08vUAKUpCCFKQgBSlIQQpSkIIUpCAF6XaQbjRTzEgX5oggBSlIQQpSkIIUpCAFKUhBClKQgnQ7SJ0cWDPqhaMqqEENalCDGtSgBjWoQQ1qUIMa1KAG9TekXmINIv++uVHsoZ0EyVhdjPypaifqIWm++CmcRfFmjPnTI9+rT1MV+cksUqL5ZkdrbBDZ2xOvBgPhi0xL3AfJSMThJyUG3Q1HxnfDtj+d6heKNHT0xs6GA5at7SdJtHiFzEHH8SD9whfP/qA4mev3rmi8XX/SH4VR4/FlJ44aN+Ek2b1XwXCUaI3rcDyw11hcnd/Oz37YfbX7fqSiT2Gc+Im4UMk0DFLhszAcB5Phi52i6/VyL+5HwTT5p/E7L/cGwd3Xu43HmMVSLREMTht9nc5n6fn7wURFV/KoIbJBOW0Mgng69ucnwUS/D2f3ehz2P37fMPOlootTEMl8mh6vx2Xv1r/zF58WHqlb9pKeu6E4Xb6LZ6LuL+6GzcbfnzK2xL5+tU36x8aZtPJCl8v/viXqCys/03tUD/bbXdPbnxbOf2vvnipQ9SpR7Vaiul+Jaq8S1YNKVFffuXdwaH4DmJvq2rv0ZLu3qrpfWvW4EtX1F33yycpqZL1qZLvVyO5XI9urRvagGtnDamSrmWSymlnmVTPLvGpmmVdNEfOqqWIeoYw9NaYqsUOI1MBB1HJs3UQtR9ZN1HJc3UQtdwduopabAzdRy72Bm6jlquUmarlmuYnabgwcVS1XLEdVy22Bo6rlrsBR1XJT4KhquSdwVLXcEjiqWu4IHFUrmVq2+wHHGlDJ3LLdDTiqVlKwbPcCjqplS9YT45QS2wDts+KgajmsjqqWw+qoajmsjqqWWwFHVcu9gKOq5WbAUdVyyXJUtVyyHFVt9wOuspaLlqus5Y7AVdZyS+Aqa7kncJW13BS4ylruClxlLbcFrrLVTDLbjYFrVahmltluDVxlqylitpsDV9myZcz+Eewyv19YPLHNEND2pzZsAW1/nsMW0PYnPWwBbX+XwRbQ9tccbAEP6w54VHfA47oDru2U6olY+1oja19sZO2rjax9uZG1rzey9gVH1r7iyNqXHFn7muPVvuZ49e9val9zrH9jxReRY83Z+ORgmW3q4kFDhoC2V5EtoO1FZAtoew3ZAtqWDbaAtlWDLaBt0WALaFsz2ALalgy2gNbbVL6Ita811ttUvoi1rzbW21S+iLWvN9bbVL6Ita841ttUvoi1rznW21S+iPXvb2pfc6y3qXwROdYcp4c7ymxZF8+CMAe3vbqVBLe90JUEt73mlQS3LTmVBLetPpUEt71HvZLgtnfZVhLc9l7cSoJb3xhfTXTbO3uriW57m3010W3vxq8muu1N+9VEt723v5roto8AVBPd9kmBaqJ/06XO+rmDavY033Sts36KoZro33RDZ711rya665bug81TmPmz0+JUTNT98iHP7NnOZnw3bGVPaW58nHP5AHaskh/C2WQQN3udlpCy1xJd/TevZ/dI6EOK8fiM+WBw5idqGEbzVw9BvHh8+XE0LJ7yTgXeRgMVvZvpp4mtD9Qc83WOX5UfzyK1wNAPROdXgfrcevZw7XqoCxUFKs5x00j5BZmOw6Stn/jdGDL+2nlvJo3b2c0403DsJ0E4SaEacaKmu9fqJoxUwy6TflFDNRmsn9Dis+ZBmgVdnQn6CWGp/8gfCt/4vPxStn01VMn5JNHjk4a4mU36GWlzR/xp8VS4JlSPR19unBu6BTeimYyCOM1rfZxdIN1WDmqn43fu90fN/wK7qi3x8wemc92raRgHWvB1+rHN2SyblvkKVRTeuyEtsYLJQOmJuytbjkcv223ZA28CNdb51szHdDFPhlE4m6qB+O478bf884f21ciP8/VET7Cd1d75V3vTAWn7w+EbHaM9VpNhMhIvhSf+JRqvxuOGOFn/RjwO+qq5K3cuOx92Ns63J2cSRqJ5m55K53txm4bJUzWPqz/7x6mQ7hdIN53Gud7l7Yf2R5Uub6eni8Erp5ip5pf91vVUl+06Uv7HMgd/djzG9ft6vPKzO9VprZMhz5SsMLavFv4nanCmS258mY3kh3JDubzQ01k8apa9FuklPVlcz/IzaTw+sTnLtv5m2ShxEoUflV2cxXfLRgqnfj/dbdmFyr9c+qyyEMtQZVWWC8n6slJmejgvProtp/P6wpPuVaWrmst0s2f93MqqqtX3P2/aU+i2tyd+/+O9+M/bP96Ji7fv3v/824/il7c//nwmfjp/d24n8CZdtdWDr7doIglFHKYb6cnsU5oHfZFtEWPhx/108xJMhhaKy7HXOiuV2W+Ja/vFJVLJLJqIqR/F6s049JOmr5f8nfRSrnx2nX1mNZibt2grYfNT2CT8+Rv4VH3xVHpmQLV4yvyb2GYBBzjAAQ5wgAMc4AAHOMABztbjPHX90ESRGoAGNKABDWhAAxrQgAY0oAENaIppnvgkaRrtewQc4AAHOMABDnCAAxzgAAc4wCmDY+8Blv2GbeHpBVKQghSkIAUpSEEKUpCCFKQgBSlIt4N0o5liRrowRwQpSEEKUpCCFKQgBSlIQQpSkIIUpNtB6uTAmlEvHFVBDWpQgxrUoAY1qEENalCDGtSgBjWovyH1EmsQ+ffNjWIP7SRIxupi5E9VO1EPSfPFT+EsijdjzJ8e+V59mqrIT2aREs03O1pjg8jenng1GAhfZFriPkhGIg4/KTHobjgyvhu2/elUv1CkoaM3djYcsGxtP0mixStkDjqOB+kXvnj2B8XJXL93RePt+pP+KIwajy87cdS4CSfJ7r0KhqNEa1yH44G9xuLq/HZ+9sPuq933IxV9CuPET8SFSqZhkAr/pPwkmAxf7BRdr5d7cT8Kpsk/jd95uTcI7r7ebTzGLJZqiWBw2ujrdD5Lz98PJiq6kscNkQ3KaWMQxNOxPz8JJvp9OLvX47D/8fuGmS8VXZyCSObT9Hg9Lnu3/p2/+LTwSN2yl/TcDcXp8l08E3V/cTdsNv7+lLEl9vWrbdI/Ns6klRe6XP73LVFfWPmZ3qMqu9k7wPp6+dFvfFq4/a29b6pAyWNT6rIp7bMp9diUDtiUDtmUjtiUjtmU1l6+SZTiy3LJl+aSL88lX6JLvkyXfKku+XJd8iW75Mt2jy/bPcY1nS/bPb5s9xyz/anxkmUFjNTAQahgrNyECkbKTahgnNyECtYEN6GCFcFNqGA9cBMqWA3chArWAjehosLnqMSW20Vlz1GJLbuLip6jElt+F5U8RyW2DC8qeI5KbDleVO4clfjWb7YcL6p1jkouOf7E+MKyzGlvDAelgmFyVCoYJkelgmFyVCpYChyVCpYCR6WCpcBRqWApcFQqWAoclYrqnasUX5YXVTxXKb48L6p5rlJ8mV5U9Vyl+HK9qO65SvFle1Hlc5ViXNP5sr2o+LlKbcx2vIweL6PPhSwOw8vonzS8jN4GCy+jx8voyzS8jF43vIweL6PPGl5GX/xNvIx+s4BueBn9dryzETjAAQ5wgAMc4AAHOMABDnC2HueZvcoRNKABDWhAAxrQgAY0oAENaLaH5nm9sxE4wAEOcIADHOAABzjAAQ5wnhXONzRne9VPgrsgmf+i7tRYNP8Ne7bnaM+WX6StcGLzOs/fiS1lrMuJrdPu9FiM2EhCXS6hfS6hHpfQAZfQIZfQEZfQMZfQ2nP5NCW23JZsyS3Zsluypbdky2/JluCSLcMlW4pLthz32HLc41u/2XLcY8txzy3H7R3X1rXKG65RdMyjVN5ujaJjXgXKm61RdMwrQHmrNYqOefYTjNZIQlwZXVDeCC5rJCGupC6obQSLNZIQV14XFDaCvxppZeTK7IKqRjBXIwlxZXZBSSvvrLauQzBWIwmZh4hgq0YSMk9+gqkaScg8+QmWaiQh8+SnGKrRlNhyu6CyUdzUaEps6V1Q3ChWajQltgwvqG8UHzXaWsmW4wUljmKiRlNiy/GCKgcHNTiowUHtCSEc1HSDgxoc1OCgVtDgoAYHNaezgoPaWnyH78NBbbXBQe2xVXDD1jMzGgAOcIADHOAABzjAAQ5wgAOcrcd5Zv4DoAENaEADGtCABjSgAQ1oQLM9NH8Z3wPgAAc4wAEOcIADHOAABzjAKR/vGziowTDtWRmmXfRHajBLR1k/DhWrRMjOdtimyS2wTZO12aYdZA+FlrW44RLqcgntcwn1uIQOuIQOuYSOuISOuYTWnr6nKbHltmRLbsmW3ZItvSVbfku2BJdsGS7ZUlyy5bjHluMe3/rNluMeW457bjlub5u2rlXeNo2iYx6l8rZpFB3zKlDeNo2iY14BytumUXTMs59gm0YS4srogvJGsE0jCXEldUFtI9imkYS48rqgsBFs00grI1dmF1Q1gm0aSYgrswtKWnnbtHUdgm0aScg8RATbNJKQefITbNNIQubJT7BNIwmZJz/FNo2mxJbbBZWNYptGU2JL74LiRrFNoymxZXhBfaPYptHWSrYcLyhxFNs0mhJbjhdUOdimwTYNtmlPCGGbphts02CbBtu0ggbbNNimOZ0VbNPW4jt8H7Zpqw22aY+tgru0npm7AHCAAxzgAAc4wAEOcIADHOBsPc4zMx0ADWhAAxrQgAY0oAENaEADmu2h+cuYHQAHOMABDnCAAxzgAAc4wAFO+XiwTcsbbNMebdPkdtimeVtgm+bVZpvWaXssrmkUnS6Tzj6TTo9J54BJ55BJ54hJ55hJZ+2he5IQV0ZLrpSWXDktuZJacmW15EpryZXXkiuxJVdme1yZ7bGt1VyZ7XFltueU2fb2aGtS5d3RCDLGESrvjUaQMc778s5oBBnjnC/vi0aQMc53gisaRYcpj81ljGCJRtFhSmVzDSP4oVF0mLLZXMAIZmiUdZApn83Vi+CERtFhymdz6Spvg7YmQ3BBo+gYh4fggUbRMU53ggMaRcc43Qn+ZxQd43SnuJ+RhLgy2lzBKNZnJCGupDYXMYrvGUmIK6/NdYxiekZaGbky21zKKI5nJCGuzDZXM9idwe4MdmdPCGF3phvszmB3Bruzgga7M9idOZ0V7M7W4jt8H3Znqw12Z4+tgrurnpkrAHCAAxzgAAc4wAEOcIADHOBsPc4zMwsADWhAAxrQgAY0oAENaEADmu2h+cuYFAAHOMABDnCAAxzgAAc4wAFO+XiwO8sb7M4e7c687bA7626B3Vm3RruzTo/J74wg1OUS2ucS6nEJHXAJHXIJHXEJHXMJffG4PUWJLbclW3JLtuyWbOkt2fJbsiW4ZMtwyZbiki3HPbYc9/jWb7Yc99hy3HPLcRcbtFUtig9aeR3zKFGc0MrrmFcBihdaeR3zCkBxQyuvY579JD80ghBXRheUN5IlGkGIK6kLahvJFY0gxJXXBYWNZIxGWBm5MrugqpG80QhCXJldUNIo9mirOiR/NIKQeYhIDmkEIfPkJ3mkEYTMk5/kkkYQMk9+mk8aRYkttwsqG80qjaLElt4FxY3mlkZRYsvwgvpGM0yjrJVsOV5Q4mieaRQlthwvqHKwTYNtGmzTnhDCNk032KbBNg22aQUNtmmwTXM6K9imrcV3+D5s01YbbNMeWwV3aT0zdwHgAAc4wAEOcIADHOAABzjA2XqcZ2Y6ABrQgAY0oAENaEADGtCABjTbQ/OXMTsADnCAAxzgAAc4wAEOcIADnPLxYJuWN9imPdqmdbfDNm1/C2zT9muzTTvIHgota3HDJdTlEtrnEupxCR1wCR1yCR1xCR1zCa09fU9TYsttyZbcki27JVt6S7b8lmwJLtkyXLKluGTLcY8txz2+9Zstxz22HPfcctzeNm1dq7xtGkXHPErlbdMoOuZVoLxtGkXHvAKUt02j6JhnP8E2jSTEldEF5Y1gm0YS4krqgtpGsE0jCXHldUFhI9imkVZGrswuqGoE2zSSEFdmF5S08rZp6zoE2zSSkHmICLZpJCHz5CfYppGEzJOfYJtGEjJPfoptGk2JLbcLKhvFNo2mxJbeBcWNYptGU2LL8IL6RrFNo62VbDleUOIotmk0JbYcL6hysE2DbRps054QwjZNN9imwTYNtmkFDbZpsE1zOivYpq3Fd/g+bNNWG2zTHlsFd2k9M3cB4AAHOMABDnCAAxzgAAc4wNl6nGdmOgAa0IAGNKABDWhAAxrQgAY020PzlzE7AA5wgAMc4AAHOMABDnCAA5zy8WCbljfYpj3apu1vh21abwts03q12aZ12h6LaxpFp8uks8+k02PSOWDSOWTSOWLSOWbSWXvoniTEldGSK6UlV05LrqSWXFktudJacuW15EpsyZXZHldme2xrNVdme1yZ7Tlltr092ppUeXc0goxxhMp7oxFkjPO+vDMaQcY458v7ohFkjPOd4IpG0WHKY3MZI1iiUXSYUtlcwwh+aBQdpmw2FzCCGRplHWTKZ3P1IjihUXSY8tlcusrboK3JEFzQKDrG4SF4oFF0jNOd4IBG0TFOd4L/GUXHON0p7mckIa6MNlcwivUZSYgrqc1FjOJ7RhLiymtzHaOYnpFWRq7MNpcyiuMZSYgrs83VDHZnsDuD3dkTQtid6Qa7M9idwe6soMHuDHZnTmcFu7O1+A7fh93ZaoPd2WOr4O6qZ+YKABzgAAc4wAEOcIADHOAABzhbj/PMzAJAAxrQgAY0oAENaEADGtCAZnto/jImBcABDnCAAxzgAAc4wAEOcIBTPh7szvIGu7NHu7PedtidHWyB3dlBjXZnnR6T3xlBqMsltM8l1OMSOuASOuQSOuISOuYS+uJxe4oSW25LtuSWbNkt2dJbsuW3ZEtwyZbhki3FJVuOe2w57vGt32w57rHluOeW4y42aKtaFB+08jrmUaI4oZXXMa8CFC+08jrmFYDihlZexzz7SX5oBCGujC4obyRLNIIQV1IX1DaSKxpBiCuvCwobyRiNsDJyZXZBVSN5oxGEuDK7oKRR7NFWdUj+aAQh8xCRHNIIQubJT/JIIwiZJz/JJY0gZJ78NJ80ihJbbhdUNppVGkWJLb0LihvNLY2ixJbhBfWNZphGWSvZcrygxNE80yhKbDleUOVgmwbbNNimPSGEbZpusE2DbRps0woabNNgm+Z0VrBNW4vv8H3Ypq022KY9tgru0npm7gLAAQ5wgAMc4AAHOMABDnCAs/U4z8x0ADSgAQ1oQAMa0IAGNKABDWi2h+YvY3YAHOAABzjAAQ5wgAMc4AAHOOXjwTYtb7BNe7RNO9gO27TDLbBNO6zNNu0geyi0rMUNl1CXS2ifS6jHJXTAJXTIJXTEJXTMJbT29D1NiS23JVtyS7bslmzpLdnyW7IluGTLcMmW4pItxz22HPf41m+2HPfYctxzy3F727R1rfK2aRQd8yiVt02j6JhXgfK2aRQd8wpQ3jaNomOe/QTbNJIQV0YXlDeCbRpJiCupC2obwTaNJMSV1wWFjWCbRloZuTK7oKoRbNNIQlyZXVDSytumresQbNNIQuYhItimkYTMk59gm0YSMk9+gm0aScg8+Sm2aTQlttwuqGwU2zSaElt6FxQ3im0aTYktwwvqG8U2jbZWsuV4QYmj2KbRlNhyvKDKwTYNtmmwTXtCCNs03WCbBts02KYVNNimwTbN6axgm7YW3+H7sE1bbbBNe2wV3KX1zNwFgAMc4AAHOMABDnCAAxzgAGfrcZ6Z6QBoQAMa0IAGNKABDWhAAxrQbA/NX8bsADjAAQ5wgAMc4AAHOMABDnDKx4NtWt5gm/Zom3a4HbZpR1tgm3ZUm21ap+2xuKZRdLpMOvtMOj0mnQMmnUMmnSMmnWMmnbWH7klCXBktuVJacuW05EpqyZXVkiutJVdeS67EllyZ7XFltse2VnNltseV2Z5TZtvbo61JlXdHI8gYR6i8NxpBxjjvyzujEWSMc768LxpBxjjfCa5oFB2mPDaXMYIlGkWHKZXNNYzgh0bRYcpmcwEjmKFR1kGmfDZXL4ITGkWHKZ/Npau8DdqaDMEFjaJjHB6CBxpFxzjdCQ5oFB3jdCf4n1F0jNOd4n5GEuLKaHMFo1ifkYS4ktpcxCi+ZyQhrrw21zGK6RlpZeTKbHMpoziekYS4MttczWB3Brsz2J09IYTdmW6wO4PdGezOChrszmB35nRWsDtbi+/wfdidrTbYnT22Cu6uemauAMABDnCAAxzgAAc4wAEOcICz9TjPzCwANKABDWhAAxrQgAY0oAENaLaH5i9jUgAc4AAHOMABDnCAAxzgAAc45ePB7ixvsDtb2p11t8Pt7HgL3M6Oa3Q76/SY7M4IQl0uoX0uoR6X0AGX0CGX0BGX0DGX0BdP21OU2HJbsiW3ZMtuyZbeki2/JVuCS7YMl2wpLtly3GPLcY9v/WbLcY8txz23HHdxQVvVotigldcxjxLFCK28jnkVoFihldcxrwAUM7TyOubZT7JDIwhxZXRBeSM5ohGEuJK6oLaRTNEIQlx5XVDYSL5ohJWRK7MLqhrJGo0gxJXZBSWN4o62qkOyRyMImYeIZJBGEDJPfpJFGkHIPPlJJmkEIfPkp9mkUZTYcrugstGc0ihKbOldUNxoZmkUJbYML6hvNL80ylrJluMFJY5mmUZRYsvxgioH1zS4psE17QkhXNN0g2saXNPgmlbQ4JoG1zSns4Jr2lp8h+/DNW21wTXtsVVwk9YzMxcADnCAAxzgAAc4wAEOcIADnK3HeWaeA6ABDWhAAxrQgAY0oAENaECzPTR/Ga8D4AAHOMABDnCAAxzgAAc4wCkfD65peYNr2tI1bX8rXNO6nefvmpYy1uWadpA9E1rW4YZLqMsltM8l1OMSOuASOuQSOuISOuYSWnv4nqbEltuSLbklW3ZLtvSWbPkt2RJcsmW4ZEtxyZbjHluOe3zrN1uOe2w57rnluL1r2rpWedc0io55lMq7plF0zKtAedc0io55BSjvmkbRMc9+gmsaSYgrowvKG8E1jSTEldQFtY3gmkYS4srrgsJGcE0jrYxcmV1Q1QiuaSQhrswuKGnlXdPWdQiuaSQh8xARXNNIQubJT3BNIwmZJz/BNY0kZJ78FNc0mhJbbhdUNoprGk2JLb0LihvFNY2mxJbhBfWN4ppGWyvZcrygxFFc02hKbDleUOXgmgbXNLimPSGEa5pucE2Daxpc0woaXNPgmuZ0VnBNW4vv8H24pq02uKY9tgpu0npm5gLAAQ5wgAMc4AAHOMABDnCAs/U4z8xzADSgAQ1oQAMa0IAGNKABDWi2h+Yv43UAHOAABzjAAQ5wgAMc4AAHOOXjwTUtb3BNW7qm9bbDNU1ugWuarM01rdP2WEzTKDpdJp19Jp0ek84Bk84hk84Rk84xk87aM/ckIa6MllwpLblyWnIlteTKasmV1pIrryVXYkuuzPa4MttjW6u5MtvjymzPKbPt3dHWpMqboxFkjCNU3hqNIGOc9+WN0Qgyxjlf3haNIGOc7wRTNIoOUx6byxjBEY2iw5TK5hpGsEOj6DBls7mAEbzQKOsgUz6bqxfBCI2iw5TP5tJV3gVtTYZggkbRMQ4PwQKNomOc7gQDNIqOcboT7M8oOsbpTjE/IwlxZbS5glGcz0hCXEltLmIU2zOSEFdem+sYxfOMtDJyZba5lFEMz0hCXJltrmZwO4PbGdzOnhDC7Uw3uJ3B7QxuZwUNbmdwO3M6K7idrcV3+D7czlYb3M4eWwU3Vz0zUwDgAAc4wAEOcIADHOAABzjA2XqcZ+YVABrQgAY0oAENaEADGtCABjTbQ/OX8SgADnCAAxzgAAc4wAEOcIADnPLx4HaWN7idLd3ODrbD7czbArczr0a3s06Pye6MINTlEtrnEupxCR1wCR1yCR1xCR1zCX3xtD1FiS23JVtyS7bslmzpLdnyW7IluGTLcMmW4pItxz22HPf41m+2HPfYctxzy3EXF7RVLYoNWnkd8yhRjNDK65hXAYoVWnkd8wpAMUMrr2Oe/SQ7NIIQV0YXlDeSIxpBiCupC2obyRSNIMSV1wWFjeSLRlgZuTK7oKqRrNEIQlyZXVDSKO5oqzokezSCkHmISAZpBCHz5CdZpBGEzJOfZJJGEDJPfppNGkWJLbcLKhvNKY2ixJbeBcWNZpZGUWLL8IL6RvNLo6yVbDleUOJolmkUJbYcL6hycE2Daxpc054QwjVNN7imwTUNrmkFDa5pcE1zOiu4pq3Fd/g+XNNWG1zTHlsFN2k9M3MB4AAHOMABDnCAAxzgAAc4wNl6nGfmOQAa0IAGNKABDWhAAxrQgAY020Pzl/E6AA5wgAMc4AAHOMABDnCAA5zy8eCalje4pi1d0w63wzWtuwWuad3aXNMOsmdCyzrccAl1uYT2uYR6XEIHXEKHXEJHXELHXEJrD9/TlNhyW7Ilt2TLbsmW3pItvyVbgku2DJdsKS7Zctxjy3GPb/1my3GPLcc9txy3d01b1yrvmkbRMY9Sedc0io55FSjvmkbRMa8A5V3TKDrm2U9wTSMJcWV0QXkjuKaRhLiSuqC2EVzTSEJceV1Q2AiuaaSVkSuzC6oawTWNJMSV2QUlrbxr2roOwTWNJGQeIoJrGknIPPkJrmkkIfPkJ7imkYTMk5/imkZTYsvtgspGcU2jKbGld0Fxo7im0ZTYMrygvlFc02hrJVuOF5Q4imsaTYktxwuqHFzT4JoG17QnhHBN0w2uaXBNg2taQYNrGlzTnM4Krmlr8R2+D9e01QbXtMdWwU1az8xcADjAAQ5wgAMc4AAHOMABDnC2HueZeQ6ABjSgAQ1oQAMa0IAGNKABzfbQ/GW8DoADHOAABzjAAQ5wgAMc4ACnfDy4puUNrmlL17Sj7XBN298C17T92lzTOm2PxTSNotNl0tln0ukx6Rww6Rwy6Rwx6Rwz6aw9c08S4spoyZXSkiunJVdSS66sllxpLbnyWnIltuTKbI8rsz22tZorsz2uzPacMtveHW1Nqrw5GkHGOELlrdEIMsZ5X94YjSBjnPPlbdEIMsb5TjBFo+gw5bG5jBEc0Sg6TKlsrmEEOzSKDlM2mwsYwQuNsg4y5bO5ehGM0Cg6TPlsLl3lXdDWZAgmaBQd4/AQLNAoOsbpTjBAo+gYpzvB/oyiY5zuFPMzkhBXRpsrGMX5jCTEldTmIkaxPSMJceW1uY5RPM9IKyNXZptLGcXwjCTEldnmaga3M7idwe3sCSHcznSD2xnczuB2VtDgdga3M6ezgtvZWnyH78PtbLXB7eyxVXBz1TMzBQAOcIADHOAABzjAAQ5wgAOcrcd5Zl4BoAENaEADGtCABjSgAQ1oQLM9NH8ZjwLgAAc4wAEOcIADHOAABzjAKR8Pbmd5g9vZ0u3seDvcznpb4HbWq83tTO532p2VJvdZzM8YZbvVyO5XI9urRvagGtnDamSPqpE9rkZ27Vl/Tt2K5pmsaKLJimaarGiqyYrmmqxossmKZpusaLrJiuabV9F886qqaxXNN6+i+eZR5pu9q1yRcnmTOT5V29Etb0HHp2q7kpU3qONTtV3FytvX8anarmAEcztG2Wpml/V2geCExyhbzQSz3isQbPMYZauZY9YbBYLHHmNVqGaWWe8SCIZ8jLLVzDLrLUJ5974iVYKZH6Os7dASrP4YZW0XMIIRIKOs7QJGsAlklLVdwCgmgpy6Fc0z650CxXGQU7eiqWa9WaDYE3LqVjTbrPcLFC9DzjpR0Xyz3jJQjA85dSuab9a7BrgkwiURLolPCOGSqBtcEuGSCJfEggaXRLgkOp0VXBLX4jt8Hy6Jqw0uiY+tgpsyn5mZCHCAAxzgAAc4wAEOcIADHOBsPc4z8xgBDWhAAxrQgAY0oAENaEADmu2h+ct4mwAHOMABDnCAAxzgAAc4wAFO+XjfwCXxvfo0VZGfzCIlmm92YJr4vEwTVXQX9JX4t68z75cwnAp9wfR9zvudN9thoHiwBQaKB/UZKOq/l3VqYtLpMunsM+n0mHQOmHQOmXSOmHSOmXTWDQYoQlwZLblSWnLltORKasmV1ZIrrSVXXkuuxJZcme1xZbbHtlZzZbbHldmeU2Y7GPutShGc/MrLGEeI4NVXXsY47wlufOVljHOe4LdXXsY43ymOegQdpjw2lzGKSR5BhymVzTWM4ntH0GHKZnMBo1jZEdZBpnw2Vy+KOx1BhymfzaWLYDi3KkNxmCPoGIeH4iFH0DFOd4pLHEHHON0pPnAEHeN0Jzm9UYS4MtpcwUjmbRQhrqQ2FzGSHxtFiCuvzXWMZLFGWRm5MttcykiuaRQhrsw2V7MnQr9HQRgFyVxIsSuaF7PJjrakOtj9v/5ktyN3s7+/Vv3drjSVuc7aP/RevdrfPz5mCOFVH6JbfYj96kP0qg9xUH2Iw+pDHFUf4rj6EGuVvaoYNcxvWcMElzXMcFnDFJc1zHFZwySXNcxyWcM0lzXMc6+Gee7VUcdrmOdeDfPcKzfPvSyGn5hidOy2Vd2u5x0dMIQwXw22EOaLwRbCfC3YQpiXXLYQ5hWXLYR5wWULYV5v2UKYl1u2EAXbKr4YNczvgm0VX4waZnjBtoovRg1zvGBbxRejhllesK3ii1HDPC/YVvHFqKOO1zDPC7ZVfDHKzfOujvEmCgwxvGO7bZWUh4fdLkMI89VgC2G+GGwhzNeCLYR5yWULYV5x2UKYF1y2EOb1li2E+d4othAFNwTyxTDfUcUXw3yzFV8M831YfDHMt2jxxTDfl8gXw3zLIl8M892MfDHMNzryxahhnhdsq/hi1FHHayjkBdsqvhjlSvm+jvF+NDPFOLLbVh2nrfcDQwjz1WALYb4YbCHM14IthHlbxRbCvK1iC2HeVrGFMG+r2EKYl1u2EAXbKr4Y5m0VXwzztoovhnlbxRfDvK3ii2HeVvHFMG+r+GKYt1V8MczbKr4YNczzgm0VX4w66ngNhbxgW8UXo1wp7+kY/1YDU4xDu23V69dnZ4eHDCHMV4MthPlisIUwXwu2EOZtFVsI87aKLYR5W8UWwrytYgthXm7ZQhRsq/himLdVfDHM2yq+GOZtFV8M87aKL4Z5W8UXw7yt4oth3lbxxTBvq/hi1DDPC7ZVfDHqqOM1FPKCbRVfjHKl/CDbus2UKcaB3bbq7OzggCWE+WqwhTBfDLYQ5mvBFsK8rWILYd5WsYUwb6vYQpi3VWwhzMstW4iCbRVfDPO2ii+GeVvFF8O8reKLYd5W8cUwb6v4Ypi3VXwxzNsqvhjmbRVfjBrmecG2ii9GHXW8hkJesK3ii1GulB/qGL+GptvivZ7dturoyPN6PYYQ5qvBFsJ8MdhCmK8FWwjztoothHlbxRbCvK1iC2HeVrGFKPKdYgpRaLbGFaPIrYorRpGRFVeMIo8rrhhF9ldcMYo837hiFNnBccUocorjilFkIscVo4Z5XrCt4otRRx2voZAXbKv4Ymwu5R9sHF5zT2ZxKibqfmkgm/nGNuO7YStzgN1oFbs0do5V8kM4mwziZq/TElL2WqKr/+b17OxmH1KMR1PqweDMT9QwjOavHoJ4YYv8eP4W7tGpwNtooKJ3M+1SbH2g5pivc/yq/HgWqQWGNlrOx71ie250oxvd6EY3utGNbnSjG93oRje60Y1udKMb3ehGN7rRjW50oxvd6EY3utGNbnSjG93oRje60Y1udKMb3ehGN7rRjW50oxvd6EY3utGNbnT/r+qet8M7FUXBQP3q6wdrZbtDfF5VPxobrz8ae6GiQMX547WN1vIB4uk4TNrjYKI2PiIbf+053c1P1sbt7NXz03DsJ0E4SaEacaKmu9fqJoxUw+7J51/UUE0G6ye0+Kx50GmJrn5yuaMfZNZ/NMbqJtFgG6SXsu2roUrOJ4kenzTEzWzSz0ibO+LPDRJLQvV49OXGZ7l1C25EMxkFcTvOropdIN1WDmqn43fu90fN/wK7qi3x9aPjKXuuezUN40ALvk4/tjmbZdMyX6GKwns3pCVWMBkoPR92Zcvx6GW7LXvgTaDGOt+a+Zgu5skwCmdTNRDffSf+ln/+0L4a+XH+/LueYDurvfOv9qYD0vaHwzc6RnusJsNkJF4KT/xLNF6Nxw1xsv6NeBz0VXNX7lx2PuxsnG9PziSMRPM2PZXO9+I2DZOnah5Xf/aPdMVxv0C66TTO9S5vP7Q/qrk4PT1dDF45xUw1v+y3rqe6bNeR8j+WOfiz4zGu39fjlZ/dqU5rnQx5pmRGDu0rP46D4UQNzrRFRHyZjeSHckO5vNDTWTxqlr0W6SU9WVzP8jNpPD6xOcu2/mbZKHEShR+VXZzFd8tGCqd+P0jmdqHyL5c+qyzEMlRZleVCsr6slJkezouPbsvpvL7wiF0hXdVcpps96+dWVlWtvv95055Ct7098fsf78V/3v7xTly8fff+599+FL+8/fHnM/HT+btzO4E36aqtHny9RRNJKOIwSsRk9inNg77ILE1i4cf9dPMSTIYWisux1zorldlviWv7xSVSySyaiKkfxerNOPSTpq+X/J30Uq58dp19ZjWYm7doK2HzU9gk/Llap5fH/Wc23bPJ3nwxUDf+bJyIaRSma5h60RIv/n50dHZ2fv6iYuMZ4AAHOMABDnCAAxzgAAc4wPnfiSPi2af0n8BioPSHYuDPNVGkBqABDWhAAxrQgAY0oAENaEADmmKa++zWrC9orsczBRzgAAc4wAEOcIADHOAABzjAKYPz+N5Aqd8beDEzvTewK7PfsL16tb9/fAxSkIIUpCAFKUhBClKQghSkIAUpSLeD1MtI/cRE2slIu13POzoAKUhBClKQghSkIAUpSEEKUpCCFKTbQdrVpG+iwEDqHWekUh4edrsgBSlIQQpSkIIUpCAFKUhBClKQgnQ7SPc16fvRzER6lJEep633A0hBClKQghSkIAUpSEEKUpCCFKQg3Q7Snib9txqYSA8z0tevz84OD0EKUpCCFKQgBSlIQQpSkIIUpCAF6XaQHmQ/mZgpE+lBRnp2dnAAUpCCFKQgBSlIQQpSkIIUpCAFKUi3hfRQk/4ampwFvV5GenTkeb0eSEEKUpCCFKQgBSlIQQpSkIIUpCCtjXSJMoj8++ZGsYd2EiRjdTHyp6qdqIek+eKncBbFmzHmT498HXxSkzgIJ2MVZwobJPb2xKvBQPgiUxL3QTIScfhJiUF3w5Hx3bDtT6dqMmg2dOzGzoYDlq3tJ0nUbDw0WuKg43jQPD3Isz8oTuZjtcDb9Sf9URilxzfG6saBNte4CSfJ7r0KhqNEa1yH44G9xuLaXEx3f1dReoESFV39z29XUlzM492ueDOOdtO/90e7r8RPv4/7n5LdOJylF+J/fhO/nZ/9oL+WqE+iK36/+B/xtt/X332xU3RpX+7F/SiYJv80fufl3iC4+3q38RizWKolgsFpo6/z/iwdKj+YpCfZPWyIbPxOG4Mgno79+UkwGaddu9fjsP/x+4aZLxVdnIJI5tP0eD2Ee7f+nb/4tPBI3e78SKeoOBWD4NN0rNoTdX9xN2w2/v6UsSX2O53sj41TTssO/MRPdS//bIz9azVunDQG6safjRMxjcKbYKwarUXP1UPjRLY7rcadP56pxsnBcft4pR0dtxp9vU6lCunSc3Z2ft743LJS9SpR7Vaiul+Jaq8S1YNKVA8rUT2qRPW4ElXZqUa2mtklq5lespr5JauZYLKaGSarmWKymjkmq5lksppZ5lUzy7yKalg1s8yrZpZ5hFkm4tmnT2uv/i6xQ4jUwEHUcmzdRC1H1k3UclzdRC3XLjdRy5XLTdRy3XITtVy13EQt1yw3UduNgaNqJXPKdlvgqFrJrLLdFDiqVjKvbLcEjqqVzCzbDYGjaiVzy3Y74KhaTb2qZG7Z7gUcVcvOrftgklC3Adf6C/aqlsPqqGo5rI6qlsPqqGq5ZDmqWi5ZjqqWS5ajquWS5ahquWQ5qtruB1xlq5ldtjsCV9lq5pftnsBVtpoZZrsrcJWtZo7Z7gtcZauZZbY7A1fZimpYNbPMdnPgKus0yz7Y/MIh/32iOBUTdb/8fUb2a4xmfDdsZb+Q2Pibi+UvJWOV/BDOJoO42eu0hJS9lujqv3k9u99+PKQYj79rHQzO/EQNw2j+6iGIF7/UexwKi998pgJvo4GK3s3079isD9Qc83WOX5UfzyK1wNC/JswvAfV3udnvkdZDXagoUHGOm0bKL8h0HCZt/cutjSHjr533ZtK4neXdNBz7SRBOUqhGnKjp7rW6CSPVsMukX9RQTQbrJ7T4rHmQZkFXZ4L+ZZjUf+S/Kt34W+SlbPtqqJLzSaLHJw1xM5v0M9LmjvjT4nelmlA9Hn25cW7oFtyIZjIK4jSv9XF2gXRbOaidjt+53x81/wvsqrbEz383mOteTcM40IKv049tzmbZtMxXqKLw3g1piRVMBkpP3F3Zcjx62W7LHngTqLHOt2Y+pot5MozC2VQNxHffib/lnz+0r0Z+nK8neoLtrPbOv9qbDkjbHw7f6BjtsZoMk5F4KTzxL9F4NR43xMn6N+Jx0FfNXblz2fmws3G+PTmTMBLN2/RUOt+L2zRMnqp5XP3ZP06FdL9Auuk0zvUubz+0P6p0eTs9XQxeOcVMNb/st66numzXkfI/ljn4s+Mxrt/X45Wf3alOa50MeaZkhbF9tbgPSA2yO4Hiy2wkP5QbyuWFns7iUbPstUgv6cniepafSePxic1ZtvU3y0aJkyj8qOziLL5bNlI49ftBMrcLlX+59FllIZahyqosF5L1ZaXM9HBefHRbTuf1hUfsCumq5jLd7Fk/t7KqavX9z5v2FLrt7Ynf/3gv/vP2j3fi4u279z//9qP45e2PP5+Jn87fndsJvElXbfXg6y2aSEIRh+lGejL7lOZBX2RbxFj4cT/dvASToYXicuy1zkpl9lvi2n5xiVQyiyZi6kexejMO/aTp6yV/J72UK59dZ59ZDebmLdpK2PwUNgl//gb3a37xC9j8pkz9C9VvcvsocIADHOAABzjAAQ5wgAMc4Gw9ztMbXDRRpAagAQ1oQAMa0IAGNKABDWhAA5pimie3BGoafYsfcIADHOAABzjAAQ5wgAMc4ADnG7okvlefpiryk1mkRPPNDnwSn5VP4r99nXE/qew/rz5dB2qSCH3JtO+hGszS8d8Vh50322GBeLQFFohHtVkgZg+elrVgYtLpMunsM+n0mHQOmHQOmXSOmHSOmXTWvAVIQlwZLblSWnLltORKasmV1ZIrrSVXXkuuxJZcme1xZbbHtlZzZbbHldmeU2bbW/atSZU36SPIGEeovBEfQcY478ub7RFkjHO+vKEeQcY43wmmeRQdpjw2lzGCFR5FhymVzTWMYHBH0WHKZnMBI9jWUdZBpnw2Vy+CGR1FhymfzaWrvMXcmgzBVI6iYxwegnEcRcc43QnmcBQd43QnGMBRdIzTnWLyRhLiymhzBaNYt5GEuJLaXMQohmwkIa68Ntcxis0aaWXkymxzKaOYp5GEuDLbXM1gibYVlmjoRje60Y1udKMb3ehGN7rRjW50oxvd6H5O3fN2eKeiKBioX339gyrZ7sASf+VMYIn/2GCJ79RgiQ9LfIcGS/wvGyzxv2ywxHdssMSHJf5XGyzxgQMc4AAHOMABDnCAAxzgAAc422AoCRrQgAY0oAENaEADGtCABjTbQ/OXMbIEDnCAAxzgAAc4wAEOcIADnPLxvoEl/uvgk5rEQTgZqziGIf7zMsQPo4/i/OYm6Adq0p8/2uDXa4Cff/uLntX/X/598d9H9fwvj/+5Dgdz/d9R8mn8z//z/wMXXitE"
               },
               {
                  "name" : "annual_peak_electric_demand",
                  "units" : "kW",
                  "value" : 46.060699999999997
               },
               {
                  "name" : "first_year_capital_cost",
                  "units" : "$",
                  "value" : 0
               },
               {
                  "name" : "annual_utility_cost",
                  "units" : "$",
                  "value" : 7793.3199999999997
               },
               {
                  "name" : "total_lifecycle_cost",
                  "units" : "$",
                  "value" : 130479.05
               }
            ],
            "step_warnings" : [ "A table in Annual Overview section returned false and was skipped." ]
         }
      }
   ],
   "updated_at" : "20170710T190545Z",
   "weather_file" : "USA_CO_Denver.Intl.AP.725650_TMY3.epw"
}
