{
   "completed_at" : "20170710T183844Z",
   "completed_status" : "Success",
   "created_at" : "2017-07-10 18:35:43 +0000",
   "current_step" : 5,
   "description" : "",
   "eplusout_err" : "Program Version,EnergyPlus, Version 8.7.0-78a111df4a, YMD=2017.07.10 18:37,IDD_Version 8.7.0\n   ************* IDF Context for following error/warning message:\n   ************* Note -- lines truncated at 300 characters, if necessary...\n   *************      5 Building,\n   ************* indicated Name=NECB 2011-RetailStripmall-NECB HDD Method-CAN_BC_Smithers.719500_CWEC.epw created: 2017-07-10 18:35:49 +0000\n   ************* Only last 1 lines before error line shown.....\n   *************      6   NECB 2011-RetailStripmall-NECB HDD Method-CAN_BC_Smithers.719500_CWEC.epw created: 2017-07-10 18:35:49 +0000, !- Name\n   ** Warning ** IP: IDF line~6 Alpha Argument length exceeds maximum, will be truncated=  NECB 2011-RetailStripmall-NECB HDD Method-CAN_BC_Smithers.719500_CWEC.epw created: 2017-07-10 18:35:49 +000\n   **   ~~~   ** Will be processed as Alpha=NECB 2011-RETAILSTRIPMALL-NECB HDD METHOD-CAN_BC_SMITHERS.719500_CWEC.EPW CREATED: 2017-07-10 18:35:49 +0000\n   ************* Beginning Zone Sizing Calculations\n   ** Warning ** ProcessScheduleInput: Schedule:Day:Interval=\"ECONOMIZER MAX OA FRACTION 100 PCT DEFAULT\", Blank Schedule Type Limits Name input -- will not be validated.\n   ** Warning ** ProcessScheduleInput: Schedule:Day:Interval=\"SCHEDULE DAY 1\", Blank Schedule Type Limits Name input -- will not be validated.\n   ** Warning ** ProcessScheduleInput: Schedule:Day:Interval=\"SCHEDULE DAY 10\", Blank Schedule Type Limits Name input -- will not be validated.\n   ** Warning ** ProcessScheduleInput: Schedule:Day:Interval=\"SCHEDULE DAY 11\", Blank Schedule Type Limits Name input -- will not be validated.\n   ** Warning ** ProcessScheduleInput: Schedule:Day:Interval=\"SCHEDULE DAY 12\", Blank Schedule Type Limits Name input -- will not be validated.\n   ** Warning ** ProcessScheduleInput: Schedule:Day:Interval=\"SCHEDULE DAY 13\", Blank Schedule Type Limits Name input -- will not be validated.\n   ** Warning ** ProcessScheduleInput: Schedule:Day:Interval=\"SCHEDULE DAY 14\", Blank Schedule Type Limits Name input -- will not be validated.\n   ** Warning ** ProcessScheduleInput: Schedule:Day:Interval=\"SCHEDULE DAY 15\", Blank Schedule Type Limits Name input -- will not be validated.\n   ** Warning ** ProcessScheduleInput: Schedule:Day:Interval=\"SCHEDULE DAY 16\", Blank Schedule Type Limits Name input -- will not be validated.\n   ** Warning ** ProcessScheduleInput: Schedule:Day:Interval=\"SCHEDULE DAY 17\", Blank Schedule Type Limits Name input -- will not be validated.\n   ** Warning ** ProcessScheduleInput: Schedule:Day:Interval=\"SCHEDULE DAY 18\", Blank Schedule Type Limits Name input -- will not be validated.\n   ** Warning ** ProcessScheduleInput: Schedule:Day:Interval=\"SCHEDULE DAY 19\", Blank Schedule Type Limits Name input -- will not be validated.\n   ** Warning ** ProcessScheduleInput: Schedule:Day:Interval=\"SCHEDULE DAY 2\", Blank Schedule Type Limits Name input -- will not be validated.\n   ** Warning ** ProcessScheduleInput: Schedule:Day:Interval=\"SCHEDULE DAY 20\", Blank Schedule Type Limits Name input -- will not be validated.\n   ** Warning ** ProcessScheduleInput: Schedule:Day:Interval=\"SCHEDULE DAY 21\", Blank Schedule Type Limits Name input -- will not be validated.\n   ** Warning ** ProcessScheduleInput: Schedule:Day:Interval=\"SCHEDULE DAY 22\", Blank Schedule Type Limits Name input -- will not be validated.\n   ** Warning ** ProcessScheduleInput: Schedule:Day:Interval=\"SCHEDULE DAY 23\", Blank Schedule Type Limits Name input -- will not be validated.\n   ** Warning ** ProcessScheduleInput: Schedule:Day:Interval=\"SCHEDULE DAY 24\", Blank Schedule Type Limits Name input -- will not be validated.\n   ** Warning ** ProcessScheduleInput: Schedule:Day:Interval=\"SCHEDULE DAY 25\", Blank Schedule Type Limits Name input -- will not be validated.\n   ** Warning ** ProcessScheduleInput: Schedule:Day:Interval=\"SCHEDULE DAY 26\", Blank Schedule Type Limits Name input -- will not be validated.\n   ** Warning ** ProcessScheduleInput: Schedule:Day:Interval=\"SCHEDULE DAY 27\", Blank Schedule Type Limits Name input -- will not be validated.\n   ** Warning ** ProcessScheduleInput: Schedule:Day:Interval=\"SCHEDULE DAY 28\", Blank Schedule Type Limits Name input -- will not be validated.\n   ** Warning ** ProcessScheduleInput: Schedule:Day:Interval=\"SCHEDULE DAY 29\", Blank Schedule Type Limits Name input -- will not be validated.\n   ** Warning ** ProcessScheduleInput: Schedule:Day:Interval=\"SCHEDULE DAY 30\", Blank Schedule Type Limits Name input -- will not be validated.\n   ** Warning ** ProcessScheduleInput: Schedule:Day:Interval=\"SCHEDULE DAY 31\", Blank Schedule Type Limits Name input -- will not be validated.\n   ** Warning ** ProcessScheduleInput: Schedule:Day:Interval=\"SCHEDULE DAY 32\", Blank Schedule Type Limits Name input -- will not be validated.\n   ** Warning ** ProcessScheduleInput: Schedule:Day:Interval=\"SCHEDULE DAY 33\", Blank Schedule Type Limits Name input -- will not be validated.\n   ** Warning ** ProcessScheduleInput: Schedule:Day:Interval=\"SCHEDULE DAY 34\", Blank Schedule Type Limits Name input -- will not be validated.\n   ** Warning ** ProcessScheduleInput: Schedule:Day:Interval=\"SCHEDULE DAY 35\", Blank Schedule Type Limits Name input -- will not be validated.\n   ** Warning ** ProcessScheduleInput: Schedule:Day:Interval=\"SCHEDULE DAY 36\", Blank Schedule Type Limits Name input -- will not be validated.\n   ** Warning ** ProcessScheduleInput: Schedule:Day:Interval=\"SCHEDULE DAY 37\", Blank Schedule Type Limits Name input -- will not be validated.\n   ** Warning ** ProcessScheduleInput: Schedule:Day:Interval=\"SCHEDULE DAY 38\", Blank Schedule Type Limits Name input -- will not be validated.\n   ** Warning ** ProcessScheduleInput: Schedule:Day:Interval=\"SCHEDULE DAY 39\", Blank Schedule Type Limits Name input -- will not be validated.\n   ** Warning ** ProcessScheduleInput: Schedule:Day:Interval=\"SCHEDULE DAY 40\", Blank Schedule Type Limits Name input -- will not be validated.\n   ** Warning ** ProcessScheduleInput: Schedule:Day:Interval=\"SCHEDULE DAY 41\", Blank Schedule Type Limits Name input -- will not be validated.\n   ** Warning ** ProcessScheduleInput: Schedule:Day:Interval=\"SCHEDULE DAY 42\", Blank Schedule Type Limits Name input -- will not be validated.\n   ** Warning ** ProcessScheduleInput: Schedule:Day:Interval=\"SCHEDULE DAY 43\", Blank Schedule Type Limits Name input -- will not be validated.\n   ** Warning ** ProcessScheduleInput: Schedule:Day:Interval=\"SCHEDULE DAY 44\", Blank Schedule Type Limits Name input -- will not be validated.\n   ** Warning ** ProcessScheduleInput: Schedule:Day:Interval=\"SCHEDULE DAY 45\", Blank Schedule Type Limits Name input -- will not be validated.\n   ** Warning ** ProcessScheduleInput: Schedule:Day:Interval=\"SCHEDULE DAY 46\", Blank Schedule Type Limits Name input -- will not be validated.\n   ** Warning ** ProcessScheduleInput: Schedule:Day:Interval=\"SCHEDULE DAY 47\", Blank Schedule Type Limits Name input -- will not be validated.\n   ** Warning ** ProcessScheduleInput: Schedule:Day:Interval=\"SCHEDULE DAY 48\", Blank Schedule Type Limits Name input -- will not be validated.\n   ** Warning ** ProcessScheduleInput: Schedule:Day:Interval=\"SCHEDULE DAY 49\", Blank Schedule Type Limits Name input -- will not be validated.\n   ** Warning ** ProcessScheduleInput: Schedule:Day:Interval=\"SCHEDULE DAY 5\", Blank Schedule Type Limits Name input -- will not be validated.\n   ** Warning ** ProcessScheduleInput: Schedule:Day:Interval=\"SCHEDULE DAY 50\", Blank Schedule Type Limits Name input -- will not be validated.\n   ** Warning ** ProcessScheduleInput: Schedule:Day:Interval=\"SCHEDULE DAY 51\", Blank Schedule Type Limits Name input -- will not be validated.\n   ** Warning ** ProcessScheduleInput: Schedule:Day:Interval=\"SCHEDULE DAY 52\", Blank Schedule Type Limits Name input -- will not be validated.\n   ** Warning ** ProcessScheduleInput: Schedule:Day:Interval=\"SCHEDULE DAY 53\", Blank Schedule Type Limits Name input -- will not be validated.\n   ** Warning ** ProcessScheduleInput: Schedule:Day:Interval=\"SCHEDULE DAY 54\", Blank Schedule Type Limits Name input -- will not be validated.\n   ** Warning ** ProcessScheduleInput: Schedule:Day:Interval=\"SCHEDULE DAY 6\", Blank Schedule Type Limits Name input -- will not be validated.\n   ** Warning ** ProcessScheduleInput: Schedule:Day:Interval=\"SCHEDULE DAY 7\", Blank Schedule Type Limits Name input -- will not be validated.\n   ** Warning ** ProcessScheduleInput: Schedule:Day:Interval=\"SCHEDULE DAY 8\", Blank Schedule Type Limits Name input -- will not be validated.\n   ** Warning ** ProcessScheduleInput: Schedule:Day:Interval=\"SCHEDULE DAY 9\", Blank Schedule Type Limits Name input -- will not be validated.\n   ** Warning ** ProcessScheduleInput: Schedule:Year=\"ECONOMIZER MAX OA FRACTION 100 PCT\", Blank Schedule Type Limits Name input -- will not be validated.\n   ** Warning ** ProcessScheduleInput: Schedule:Year=\"SCHEDULE RULESET 10\", Blank Schedule Type Limits Name input -- will not be validated.\n   ** Warning ** ProcessScheduleInput: Schedule:Year=\"SCHEDULE RULESET 11\", Blank Schedule Type Limits Name input -- will not be validated.\n   ** Warning ** ProcessScheduleInput: Schedule:Year=\"SCHEDULE RULESET 12\", Blank Schedule Type Limits Name input -- will not be validated.\n   ** Warning ** ProcessScheduleInput: Schedule:Year=\"SCHEDULE RULESET 13\", Blank Schedule Type Limits Name input -- will not be validated.\n   ** Warning ** ProcessScheduleInput: Schedule:Year=\"SCHEDULE RULESET 14\", Blank Schedule Type Limits Name input -- will not be validated.\n   ** Warning ** ProcessScheduleInput: Schedule:Year=\"SCHEDULE RULESET 15\", Blank Schedule Type Limits Name input -- will not be validated.\n   ** Warning ** ProcessScheduleInput: Schedule:Year=\"SCHEDULE RULESET 16\", Blank Schedule Type Limits Name input -- will not be validated.\n   ** Warning ** ProcessScheduleInput: Schedule:Year=\"SCHEDULE RULESET 17\", Blank Schedule Type Limits Name input -- will not be validated.\n   ** Warning ** ProcessScheduleInput: Schedule:Year=\"SCHEDULE RULESET 18\", Blank Schedule Type Limits Name input -- will not be validated.\n   ** Warning ** ProcessScheduleInput: Schedule:Year=\"SCHEDULE RULESET 19\", Blank Schedule Type Limits Name input -- will not be validated.\n   ** Warning ** ProcessScheduleInput: Schedule:Year=\"SCHEDULE RULESET 20\", Blank Schedule Type Limits Name input -- will not be validated.\n   ** Warning ** ProcessScheduleInput: Schedule:Year=\"SCHEDULE RULESET 21\", Blank Schedule Type Limits Name input -- will not be validated.\n   ** Warning ** ProcessScheduleInput: Schedule:Year=\"SCHEDULE RULESET 22\", Blank Schedule Type Limits Name input -- will not be validated.\n   ** Warning ** ProcessScheduleInput: Schedule:Year=\"SCHEDULE RULESET 23\", Blank Schedule Type Limits Name input -- will not be validated.\n   ** Warning ** ProcessScheduleInput: Schedule:Year=\"SCHEDULE RULESET 24\", Blank Schedule Type Limits Name input -- will not be validated.\n   ** Warning ** ProcessScheduleInput: Schedule:Year=\"SCHEDULE RULESET 25\", Blank Schedule Type Limits Name input -- will not be validated.\n   ** Warning ** ProcessScheduleInput: Schedule:Year=\"SCHEDULE RULESET 26\", Blank Schedule Type Limits Name input -- will not be validated.\n   ** Warning ** ProcessScheduleInput: Schedule:Year=\"SCHEDULE RULESET 27\", Blank Schedule Type Limits Name input -- will not be validated.\n   ** Warning ** ProcessScheduleInput: Schedule:Year=\"SCHEDULE RULESET 28\", Blank Schedule Type Limits Name input -- will not be validated.\n   ** Warning ** ProcessScheduleInput: Schedule:Year=\"SCHEDULE RULESET 29\", Blank Schedule Type Limits Name input -- will not be validated.\n   ** Warning ** ProcessScheduleInput: Schedule:Year=\"SCHEDULE RULESET 3\", Blank Schedule Type Limits Name input -- will not be validated.\n   ** Warning ** ProcessScheduleInput: Schedule:Year=\"SCHEDULE RULESET 30\", Blank Schedule Type Limits Name input -- will not be validated.\n   ** Warning ** ProcessScheduleInput: Schedule:Year=\"SCHEDULE RULESET 31\", Blank Schedule Type Limits Name input -- will not be validated.\n   ** Warning ** ProcessScheduleInput: Schedule:Year=\"SCHEDULE RULESET 32\", Blank Schedule Type Limits Name input -- will not be validated.\n   ** Warning ** ProcessScheduleInput: Schedule:Year=\"SCHEDULE RULESET 4\", Blank Schedule Type Limits Name input -- will not be validated.\n   ** Warning ** ProcessScheduleInput: Schedule:Year=\"SCHEDULE RULESET 5\", Blank Schedule Type Limits Name input -- will not be validated.\n   ** Warning ** ProcessScheduleInput: Schedule:Year=\"SCHEDULE RULESET 6\", Blank Schedule Type Limits Name input -- will not be validated.\n   ** Warning ** ProcessScheduleInput: Schedule:Year=\"SCHEDULE RULESET 7\", Blank Schedule Type Limits Name input -- will not be validated.\n   ** Warning ** ProcessScheduleInput: Schedule:Year=\"SCHEDULE RULESET 8\", Blank Schedule Type Limits Name input -- will not be validated.\n   ** Warning ** ProcessScheduleInput: Schedule:Year=\"SCHEDULE RULESET 9\", Blank Schedule Type Limits Name input -- will not be validated.\n   ** Warning ** ProcessScheduleInput: Schedule:Constant=\"ALWAYS OFF DISCRETE\", Blank Schedule Type Limits Name input -- will not be validated.\n   ** Warning ** ProcessScheduleInput: Schedule:Constant=\"ALWAYS ON CONTINUOUS\", Blank Schedule Type Limits Name input -- will not be validated.\n   ** Warning ** CheckUsedConstructions: There are 24 nominally unused constructions in input.\n   **   ~~~   ** For explicit details on each unused construction, use Output:Diagnostics,DisplayExtraWarnings;\n   ************* Beginning System Sizing Calculations\n   ************* Beginning Plant Sizing Calculations\n   ** Warning ** GetDXCoils: Coil:Cooling:DX:SingleSpeed=\"COIL COOLING DX SINGLE SPEED 10 67KBTU/HR 9.7EER\", invalid\n   **   ~~~   ** ...Part Load Fraction Correlation Curve Name = DXCOOL-NECB2011-REF-COOLPLFFPLR 1 has out of range value.\n   **   ~~~   ** ...Curve maximum must be <= 1.0, curve max at PLR = 0.99 is 1.015\n   **   ~~~   ** ...Setting curve maximum to 1.0 and simulation continues.\n   ** Warning ** GetDXCoils: Coil:Cooling:DX:SingleSpeed=\"COIL COOLING DX SINGLE SPEED 1 66KBTU/HR 9.7EER\", invalid\n   **   ~~~   ** ...Part Load Fraction Correlation Curve Name = DXCOOL-NECB2011-REF-COOLPLFFPLR has out of range value.\n   **   ~~~   ** ...Curve maximum must be <= 1.0, curve max at PLR = 0.99 is 1.015\n   **   ~~~   ** ...Setting curve maximum to 1.0 and simulation continues.\n   ** Warning ** GetDXCoils: Coil:Cooling:DX:SingleSpeed=\"COIL COOLING DX SINGLE SPEED 3 35KBTU/HR 14.0SEER\", invalid\n   **   ~~~   ** ...Part Load Fraction Correlation Curve Name = DXCOOL-NECB2011-REF-COOLPLFFPLR 3 has out of range value.\n   **   ~~~   ** ...Curve maximum must be <= 1.0, curve max at PLR = 0.99 is 1.015\n   **   ~~~   ** ...Setting curve maximum to 1.0 and simulation continues.\n   ** Warning ** GetDXCoils: Coil:Cooling:DX:SingleSpeed=\"COIL COOLING DX SINGLE SPEED 2 34KBTU/HR 14.0SEER\", invalid\n   **   ~~~   ** ...Part Load Fraction Correlation Curve Name = DXCOOL-NECB2011-REF-COOLPLFFPLR 2 has out of range value.\n   **   ~~~   ** ...Curve maximum must be <= 1.0, curve max at PLR = 0.99 is 1.015\n   **   ~~~   ** ...Setting curve maximum to 1.0 and simulation continues.\n   ** Warning ** GetDXCoils: Coil:Cooling:DX:SingleSpeed=\"COIL COOLING DX SINGLE SPEED 6 34KBTU/HR 14.0SEER\", invalid\n   **   ~~~   ** ...Part Load Fraction Correlation Curve Name = DXCOOL-NECB2011-REF-COOLPLFFPLR 6 has out of range value.\n   **   ~~~   ** ...Curve maximum must be <= 1.0, curve max at PLR = 0.99 is 1.015\n   **   ~~~   ** ...Setting curve maximum to 1.0 and simulation continues.\n   ** Warning ** GetDXCoils: Coil:Cooling:DX:SingleSpeed=\"COIL COOLING DX SINGLE SPEED 8 35KBTU/HR 14.0SEER\", invalid\n   **   ~~~   ** ...Part Load Fraction Correlation Curve Name = DXCOOL-NECB2011-REF-COOLPLFFPLR 8 has out of range value.\n   **   ~~~   ** ...Curve maximum must be <= 1.0, curve max at PLR = 0.99 is 1.015\n   **   ~~~   ** ...Setting curve maximum to 1.0 and simulation continues.\n   ** Warning ** GetDXCoils: Coil:Cooling:DX:SingleSpeed=\"COIL COOLING DX SINGLE SPEED 7 35KBTU/HR 14.0SEER\", invalid\n   **   ~~~   ** ...Part Load Fraction Correlation Curve Name = DXCOOL-NECB2011-REF-COOLPLFFPLR 7 has out of range value.\n   **   ~~~   ** ...Curve maximum must be <= 1.0, curve max at PLR = 0.99 is 1.015\n   **   ~~~   ** ...Setting curve maximum to 1.0 and simulation continues.\n   ** Warning ** GetDXCoils: Coil:Cooling:DX:SingleSpeed=\"COIL COOLING DX SINGLE SPEED 5 34KBTU/HR 14.0SEER\", invalid\n   **   ~~~   ** ...Part Load Fraction Correlation Curve Name = DXCOOL-NECB2011-REF-COOLPLFFPLR 5 has out of range value.\n   **   ~~~   ** ...Curve maximum must be <= 1.0, curve max at PLR = 0.99 is 1.015\n   **   ~~~   ** ...Setting curve maximum to 1.0 and simulation continues.\n   ** Warning ** GetDXCoils: Coil:Cooling:DX:SingleSpeed=\"COIL COOLING DX SINGLE SPEED 4 34KBTU/HR 14.0SEER\", invalid\n   **   ~~~   ** ...Part Load Fraction Correlation Curve Name = DXCOOL-NECB2011-REF-COOLPLFFPLR 4 has out of range value.\n   **   ~~~   ** ...Curve maximum must be <= 1.0, curve max at PLR = 0.99 is 1.015\n   **   ~~~   ** ...Setting curve maximum to 1.0 and simulation continues.\n   ** Warning ** GetDXCoils: Coil:Cooling:DX:SingleSpeed=\"COIL COOLING DX SINGLE SPEED 9 35KBTU/HR 14.0SEER\", invalid\n   **   ~~~   ** ...Part Load Fraction Correlation Curve Name = DXCOOL-NECB2011-REF-COOLPLFFPLR 9 has out of range value.\n   **   ~~~   ** ...Curve maximum must be <= 1.0, curve max at PLR = 0.99 is 1.015\n   **   ~~~   ** ...Setting curve maximum to 1.0 and simulation continues.\n   ** Warning ** The Standard Ratings is calculated for Coil:Cooling:DX:SingleSpeed = COIL COOLING DX SINGLE SPEED 10 67KBTU/HR 9.7EER but not at the AHRI test condition due to curve out of bound.\n   **   ~~~   **  Review the Standard Ratings calculations in the Engineering Reference for this coil type. Also, use Output:Diagnostics, DisplayExtraWarnings for further guidance.\n   ** Warning ** The Standard Ratings is calculated for Coil:Cooling:DX:SingleSpeed = COIL COOLING DX SINGLE SPEED 1 66KBTU/HR 9.7EER but not at the AHRI test condition due to curve out of bound.\n   **   ~~~   **  Review the Standard Ratings calculations in the Engineering Reference for this coil type. Also, use Output:Diagnostics, DisplayExtraWarnings for further guidance.\n   ** Warning ** The Standard Ratings is calculated for Coil:Cooling:DX:SingleSpeed = COIL COOLING DX SINGLE SPEED 3 35KBTU/HR 14.0SEER but not at the AHRI test condition due to curve out of bound.\n   **   ~~~   **  Review the Standard Ratings calculations in the Engineering Reference for this coil type. Also, use Output:Diagnostics, DisplayExtraWarnings for further guidance.\n   ** Warning ** The Standard Ratings is calculated for Coil:Cooling:DX:SingleSpeed = COIL COOLING DX SINGLE SPEED 2 34KBTU/HR 14.0SEER but not at the AHRI test condition due to curve out of bound.\n   **   ~~~   **  Review the Standard Ratings calculations in the Engineering Reference for this coil type. Also, use Output:Diagnostics, DisplayExtraWarnings for further guidance.\n   ** Warning ** The Standard Ratings is calculated for Coil:Cooling:DX:SingleSpeed = COIL COOLING DX SINGLE SPEED 6 34KBTU/HR 14.0SEER but not at the AHRI test condition due to curve out of bound.\n   **   ~~~   **  Review the Standard Ratings calculations in the Engineering Reference for this coil type. Also, use Output:Diagnostics, DisplayExtraWarnings for further guidance.\n   ** Warning ** The Standard Ratings is calculated for Coil:Cooling:DX:SingleSpeed = COIL COOLING DX SINGLE SPEED 8 35KBTU/HR 14.0SEER but not at the AHRI test condition due to curve out of bound.\n   **   ~~~   **  Review the Standard Ratings calculations in the Engineering Reference for this coil type. Also, use Output:Diagnostics, DisplayExtraWarnings for further guidance.\n   ** Warning ** The Standard Ratings is calculated for Coil:Cooling:DX:SingleSpeed = COIL COOLING DX SINGLE SPEED 7 35KBTU/HR 14.0SEER but not at the AHRI test condition due to curve out of bound.\n   **   ~~~   **  Review the Standard Ratings calculations in the Engineering Reference for this coil type. Also, use Output:Diagnostics, DisplayExtraWarnings for further guidance.\n   ** Warning ** The Standard Ratings is calculated for Coil:Cooling:DX:SingleSpeed = COIL COOLING DX SINGLE SPEED 5 34KBTU/HR 14.0SEER but not at the AHRI test condition due to curve out of bound.\n   **   ~~~   **  Review the Standard Ratings calculations in the Engineering Reference for this coil type. Also, use Output:Diagnostics, DisplayExtraWarnings for further guidance.\n   ** Warning ** The Standard Ratings is calculated for Coil:Cooling:DX:SingleSpeed = COIL COOLING DX SINGLE SPEED 4 34KBTU/HR 14.0SEER but not at the AHRI test condition due to curve out of bound.\n   **   ~~~   **  Review the Standard Ratings calculations in the Engineering Reference for this coil type. Also, use Output:Diagnostics, DisplayExtraWarnings for further guidance.\n   ** Warning ** The Standard Ratings is calculated for Coil:Cooling:DX:SingleSpeed = COIL COOLING DX SINGLE SPEED 9 35KBTU/HR 14.0SEER but not at the AHRI test condition due to curve out of bound.\n   **   ~~~   **  Review the Standard Ratings calculations in the Engineering Reference for this coil type. Also, use Output:Diagnostics, DisplayExtraWarnings for further guidance.\n   ** Warning ** Check input. Pump nominal power or motor efficiency is set to 0, for pump=SERVICE WATER LOOP PUMP\n   ** Warning ** Output:Meter: invalid Name=\"DISTRICTCOOLING:FACILITY\" - not found.\n   ** Warning ** Output:Meter: invalid Name=\"DISTRICTHEATING:FACILITY\" - not found.\n   ** Warning ** Output:Meter:MeterFileOnly requested for \"Electricity:Facility\" (TimeStep), already on \"Output:Meter\". Will report to both eplusout.eso and eplusout.mtr\n   ************* Testing Individual Branch Integrity\n   ************* All Branches passed integrity testing\n   ************* Testing Individual Supply Air Path Integrity\n   ************* All Supply Air Paths passed integrity testing\n   ************* Testing Individual Return Air Path Integrity\n   ************* All Return Air Paths passed integrity testing\n   ************* No node connection errors were found.\n   ************* Beginning Simulation\n   ** Warning ** CalcDoe2DXCoil: Coil:Cooling:DX:SingleSpeed \"COIL COOLING DX SINGLE SPEED 10 67KBTU/HR 9.7EER\" - Air-cooled condenser inlet dry-bulb temperature below 0 C. Outdoor dry-bulb temperature = -2.93\n   **   ~~~   **  ... Occurrence info = RUN PERIOD 1, 01/01 09:02 - 09:05\n   **   ~~~   ** ... Operation at low ambient temperatures may require special performance curves.\n   ** Warning ** CalcDoe2DXCoil: Coil:Cooling:DX:SingleSpeed \"COIL COOLING DX SINGLE SPEED 1 66KBTU/HR 9.7EER\" - Air-cooled condenser inlet dry-bulb temperature below 0 C. Outdoor dry-bulb temperature = -2.93\n   **   ~~~   **  ... Occurrence info = RUN PERIOD 1, 01/01 09:02 - 09:05\n   **   ~~~   ** ... Operation at low ambient temperatures may require special performance curves.\n   ** Warning ** CalcDoe2DXCoil: Coil:Cooling:DX:SingleSpeed \"COIL COOLING DX SINGLE SPEED 3 35KBTU/HR 14.0SEER\" - Air-cooled condenser inlet dry-bulb temperature below 0 C. Outdoor dry-bulb temperature = -2.93\n   **   ~~~   **  ... Occurrence info = RUN PERIOD 1, 01/01 09:02 - 09:05\n   **   ~~~   ** ... Operation at low ambient temperatures may require special performance curves.\n   ** Warning ** CalcDoe2DXCoil: Coil:Cooling:DX:SingleSpeed \"COIL COOLING DX SINGLE SPEED 2 34KBTU/HR 14.0SEER\" - Air-cooled condenser inlet dry-bulb temperature below 0 C. Outdoor dry-bulb temperature = -2.93\n   **   ~~~   **  ... Occurrence info = RUN PERIOD 1, 01/01 09:02 - 09:05\n   **   ~~~   ** ... Operation at low ambient temperatures may require special performance curves.\n   ** Warning ** CalcDoe2DXCoil: Coil:Cooling:DX:SingleSpeed \"COIL COOLING DX SINGLE SPEED 6 34KBTU/HR 14.0SEER\" - Air-cooled condenser inlet dry-bulb temperature below 0 C. Outdoor dry-bulb temperature = -2.93\n   **   ~~~   **  ... Occurrence info = RUN PERIOD 1, 01/01 09:02 - 09:05\n   **   ~~~   ** ... Operation at low ambient temperatures may require special performance curves.\n   ** Warning ** CalcDoe2DXCoil: Coil:Cooling:DX:SingleSpeed \"COIL COOLING DX SINGLE SPEED 8 35KBTU/HR 14.0SEER\" - Air-cooled condenser inlet dry-bulb temperature below 0 C. Outdoor dry-bulb temperature = -2.93\n   **   ~~~   **  ... Occurrence info = RUN PERIOD 1, 01/01 09:02 - 09:05\n   **   ~~~   ** ... Operation at low ambient temperatures may require special performance curves.\n   ** Warning ** CalcDoe2DXCoil: Coil:Cooling:DX:SingleSpeed \"COIL COOLING DX SINGLE SPEED 7 35KBTU/HR 14.0SEER\" - Air-cooled condenser inlet dry-bulb temperature below 0 C. Outdoor dry-bulb temperature = -2.93\n   **   ~~~   **  ... Occurrence info = RUN PERIOD 1, 01/01 09:02 - 09:05\n   **   ~~~   ** ... Operation at low ambient temperatures may require special performance curves.\n   ** Warning ** CalcDoe2DXCoil: Coil:Cooling:DX:SingleSpeed \"COIL COOLING DX SINGLE SPEED 5 34KBTU/HR 14.0SEER\" - Air-cooled condenser inlet dry-bulb temperature below 0 C. Outdoor dry-bulb temperature = -2.93\n   **   ~~~   **  ... Occurrence info = RUN PERIOD 1, 01/01 09:02 - 09:05\n   **   ~~~   ** ... Operation at low ambient temperatures may require special performance curves.\n   ** Warning ** CalcDoe2DXCoil: Coil:Cooling:DX:SingleSpeed \"COIL COOLING DX SINGLE SPEED 4 34KBTU/HR 14.0SEER\" - Air-cooled condenser inlet dry-bulb temperature below 0 C. Outdoor dry-bulb temperature = -2.93\n   **   ~~~   **  ... Occurrence info = RUN PERIOD 1, 01/01 09:02 - 09:05\n   **   ~~~   ** ... Operation at low ambient temperatures may require special performance curves.\n   ** Warning ** CalcDoe2DXCoil: Coil:Cooling:DX:SingleSpeed \"COIL COOLING DX SINGLE SPEED 9 35KBTU/HR 14.0SEER\" - Air-cooled condenser inlet dry-bulb temperature below 0 C. Outdoor dry-bulb temperature = -2.93\n   **   ~~~   **  ... Occurrence info = RUN PERIOD 1, 01/01 09:02 - 09:05\n   **   ~~~   ** ... Operation at low ambient temperatures may require special performance curves.\n   ** Warning ** CalcDoe2DXCoil: Coil:Cooling:DX:SingleSpeed \"COIL COOLING DX SINGLE SPEED 1 66KBTU/HR 9.7EER\" - Full load outlet air dry-bulb temperature < 2C. This indicates the possibility of coil frost/freeze. Outlet temperature = 1.85 C.\n   **   ~~~   **  ...Occurrence info = RUN PERIOD 1, 01/30 11:15 - 11:30\n   **   ~~~   ** ... Possible reasons for low outlet air dry-bulb temperatures are: This DX coil\n   **   ~~~   **    1) may have a low inlet air dry-bulb temperature. Inlet air temperature = 15.054 C.\n   **   ~~~   **    2) may have a low air flow rate per watt of cooling capacity. Check inputs.\n   **   ~~~   **    3) is used as part of a HX assisted cooling coil which uses a high sensible effectiveness. Check inputs.\n   ** Warning ** CalcDoe2DXCoil: Coil:Cooling:DX:SingleSpeed \"COIL COOLING DX SINGLE SPEED 3 35KBTU/HR 14.0SEER\" - Full load outlet air dry-bulb temperature < 2C. This indicates the possibility of coil frost/freeze. Outlet temperature = 1.01 C.\n   **   ~~~   **  ...Occurrence info = RUN PERIOD 1, 02/16 11:45 - 12:00\n   **   ~~~   ** ... Possible reasons for low outlet air dry-bulb temperatures are: This DX coil\n   **   ~~~   **    1) may have a low inlet air dry-bulb temperature. Inlet air temperature = 14.415 C.\n   **   ~~~   **    2) may have a low air flow rate per watt of cooling capacity. Check inputs.\n   **   ~~~   **    3) is used as part of a HX assisted cooling coil which uses a high sensible effectiveness. Check inputs.\n   ** Warning ** CalcDoe2DXCoil: Coil:Cooling:DX:SingleSpeed \"COIL COOLING DX SINGLE SPEED 2 34KBTU/HR 14.0SEER\" - Full load outlet air dry-bulb temperature < 2C. This indicates the possibility of coil frost/freeze. Outlet temperature = 0.81 C.\n   **   ~~~   **  ...Occurrence info = RUN PERIOD 1, 02/16 11:45 - 12:00\n   **   ~~~   ** ... Possible reasons for low outlet air dry-bulb temperatures are: This DX coil\n   **   ~~~   **    1) may have a low inlet air dry-bulb temperature. Inlet air temperature = 14.211 C.\n   **   ~~~   **    2) may have a low air flow rate per watt of cooling capacity. Check inputs.\n   **   ~~~   **    3) is used as part of a HX assisted cooling coil which uses a high sensible effectiveness. Check inputs.\n   ** Warning ** CalcDoe2DXCoil: Coil:Cooling:DX:SingleSpeed \"COIL COOLING DX SINGLE SPEED 6 34KBTU/HR 14.0SEER\" - Full load outlet air dry-bulb temperature < 2C. This indicates the possibility of coil frost/freeze. Outlet temperature = 0.80 C.\n   **   ~~~   **  ...Occurrence info = RUN PERIOD 1, 02/16 11:45 - 12:00\n   **   ~~~   ** ... Possible reasons for low outlet air dry-bulb temperatures are: This DX coil\n   **   ~~~   **    1) may have a low inlet air dry-bulb temperature. Inlet air temperature = 14.208 C.\n   **   ~~~   **    2) may have a low air flow rate per watt of cooling capacity. Check inputs.\n   **   ~~~   **    3) is used as part of a HX assisted cooling coil which uses a high sensible effectiveness. Check inputs.\n   ** Warning ** CalcDoe2DXCoil: Coil:Cooling:DX:SingleSpeed \"COIL COOLING DX SINGLE SPEED 8 35KBTU/HR 14.0SEER\" - Full load outlet air dry-bulb temperature < 2C. This indicates the possibility of coil frost/freeze. Outlet temperature = 0.99 C.\n   **   ~~~   **  ...Occurrence info = RUN PERIOD 1, 02/16 11:45 - 12:00\n   **   ~~~   ** ... Possible reasons for low outlet air dry-bulb temperatures are: This DX coil\n   **   ~~~   **    1) may have a low inlet air dry-bulb temperature. Inlet air temperature = 14.392 C.\n   **   ~~~   **    2) may have a low air flow rate per watt of cooling capacity. Check inputs.\n   **   ~~~   **    3) is used as part of a HX assisted cooling coil which uses a high sensible effectiveness. Check inputs.\n   ** Warning ** CalcDoe2DXCoil: Coil:Cooling:DX:SingleSpeed \"COIL COOLING DX SINGLE SPEED 7 35KBTU/HR 14.0SEER\" - Full load outlet air dry-bulb temperature < 2C. This indicates the possibility of coil frost/freeze. Outlet temperature = 0.99 C.\n   **   ~~~   **  ...Occurrence info = RUN PERIOD 1, 02/16 11:45 - 12:00\n   **   ~~~   ** ... Possible reasons for low outlet air dry-bulb temperatures are: This DX coil\n   **   ~~~   **    1) may have a low inlet air dry-bulb temperature. Inlet air temperature = 14.392 C.\n   **   ~~~   **    2) may have a low air flow rate per watt of cooling capacity. Check inputs.\n   **   ~~~   **    3) is used as part of a HX assisted cooling coil which uses a high sensible effectiveness. Check inputs.\n   ** Warning ** CalcDoe2DXCoil: Coil:Cooling:DX:SingleSpeed \"COIL COOLING DX SINGLE SPEED 5 34KBTU/HR 14.0SEER\" - Full load outlet air dry-bulb temperature < 2C. This indicates the possibility of coil frost/freeze. Outlet temperature = 0.80 C.\n   **   ~~~   **  ...Occurrence info = RUN PERIOD 1, 02/16 11:45 - 12:00\n   **   ~~~   ** ... Possible reasons for low outlet air dry-bulb temperatures are: This DX coil\n   **   ~~~   **    1) may have a low inlet air dry-bulb temperature. Inlet air temperature = 14.208 C.\n   **   ~~~   **    2) may have a low air flow rate per watt of cooling capacity. Check inputs.\n   **   ~~~   **    3) is used as part of a HX assisted cooling coil which uses a high sensible effectiveness. Check inputs.\n   ** Warning ** CalcDoe2DXCoil: Coil:Cooling:DX:SingleSpeed \"COIL COOLING DX SINGLE SPEED 10 67KBTU/HR 9.7EER\" - Full load outlet air dry-bulb temperature < 2C. This indicates the possibility of coil frost/freeze. Outlet temperature = 0.75 C.\n   **   ~~~   **  ...Occurrence info = RUN PERIOD 1, 02/16 12:00 - 12:15\n   **   ~~~   ** ... Possible reasons for low outlet air dry-bulb temperatures are: This DX coil\n   **   ~~~   **    1) may have a low inlet air dry-bulb temperature. Inlet air temperature = 14.151 C.\n   **   ~~~   **    2) may have a low air flow rate per watt of cooling capacity. Check inputs.\n   **   ~~~   **    3) is used as part of a HX assisted cooling coil which uses a high sensible effectiveness. Check inputs.\n   ** Warning ** CalcDoe2DXCoil: Coil:Cooling:DX:SingleSpeed \"COIL COOLING DX SINGLE SPEED 4 34KBTU/HR 14.0SEER\" - Full load outlet air dry-bulb temperature < 2C. This indicates the possibility of coil frost/freeze. Outlet temperature = 0.96 C.\n   **   ~~~   **  ...Occurrence info = RUN PERIOD 1, 02/16 12:00 - 12:15\n   **   ~~~   ** ... Possible reasons for low outlet air dry-bulb temperatures are: This DX coil\n   **   ~~~   **    1) may have a low inlet air dry-bulb temperature. Inlet air temperature = 14.367 C.\n   **   ~~~   **    2) may have a low air flow rate per watt of cooling capacity. Check inputs.\n   **   ~~~   **    3) is used as part of a HX assisted cooling coil which uses a high sensible effectiveness. Check inputs.\n   ** Warning ** CalcDoe2DXCoil: Coil:Cooling:DX:SingleSpeed \"COIL COOLING DX SINGLE SPEED 9 35KBTU/HR 14.0SEER\" - Full load outlet air dry-bulb temperature < 2C. This indicates the possibility of coil frost/freeze. Outlet temperature = 1.07 C.\n   **   ~~~   **  ...Occurrence info = RUN PERIOD 1, 02/16 12:15 - 12:30\n   **   ~~~   ** ... Possible reasons for low outlet air dry-bulb temperatures are: This DX coil\n   **   ~~~   **    1) may have a low inlet air dry-bulb temperature. Inlet air temperature = 14.474 C.\n   **   ~~~   **    2) may have a low air flow rate per watt of cooling capacity. Check inputs.\n   **   ~~~   **    3) is used as part of a HX assisted cooling coil which uses a high sensible effectiveness. Check inputs.\n   ************* Simulation Error Summary *************\n   ************* There are 9 unused schedules in input.\n   ************* There are 9 unused week schedules in input.\n   ************* There are 32 unused day schedules in input.\n   ************* Use Output:Diagnostics,DisplayUnusedSchedules; to see them.\n   *************\n   ************* ===== Recurring Error Summary =====\n   ************* The following recurring error messages occurred.\n   *************\n   *************  ** Warning ** CalcDoe2DXCoil: Coil:Cooling:DX:SingleSpeed=\"COIL COOLING DX SINGLE SPEED 10 67KBTU/HR 9.7EER\" - Low condenser dry-bulb temperature error continues...\n   *************  **   ~~~   **   This error occurred 341 total times;\n   *************  **   ~~~   **   during Warmup 0 times;\n   *************  **   ~~~   **   during Sizing 0 times.\n   *************  **   ~~~   **   Max=-2.500000E-002 [C]  Min=-33.075 [C]\n   *************\n   *************  ** Warning ** CalcDoe2DXCoil: Coil:Cooling:DX:SingleSpeed=\"COIL COOLING DX SINGLE SPEED 1 66KBTU/HR 9.7EER\" - Low condenser dry-bulb temperature error continues...\n   *************  **   ~~~   **   This error occurred 379 total times;\n   *************  **   ~~~   **   during Warmup 0 times;\n   *************  **   ~~~   **   during Sizing 0 times.\n   *************  **   ~~~   **   Max=-2.500000E-002 [C]  Min=-33.075 [C]\n   *************\n   *************  ** Warning ** CalcDoe2DXCoil: Coil:Cooling:DX:SingleSpeed=\"COIL COOLING DX SINGLE SPEED 3 35KBTU/HR 14.0SEER\" - Low condenser dry-bulb temperature error continues...\n   *************  **   ~~~   **   This error occurred 326 total times;\n   *************  **   ~~~   **   during Warmup 0 times;\n   *************  **   ~~~   **   during Sizing 0 times.\n   *************  **   ~~~   **   Max=-2.500000E-002 [C]  Min=-33.075 [C]\n   *************\n   *************  ** Warning ** CalcDoe2DXCoil: Coil:Cooling:DX:SingleSpeed=\"COIL COOLING DX SINGLE SPEED 2 34KBTU/HR 14.0SEER\" - Low condenser dry-bulb temperature error continues...\n   *************  **   ~~~   **   This error occurred 328 total times;\n   *************  **   ~~~   **   during Warmup 0 times;\n   *************  **   ~~~   **   during Sizing 0 times.\n   *************  **   ~~~   **   Max=-2.500000E-002 [C]  Min=-33.075 [C]\n   *************\n   *************  ** Warning ** CalcDoe2DXCoil: Coil:Cooling:DX:SingleSpeed=\"COIL COOLING DX SINGLE SPEED 6 34KBTU/HR 14.0SEER\" - Low condenser dry-bulb temperature error continues...\n   *************  **   ~~~   **   This error occurred 328 total times;\n   *************  **   ~~~   **   during Warmup 0 times;\n   *************  **   ~~~   **   during Sizing 0 times.\n   *************  **   ~~~   **   Max=-2.500000E-002 [C]  Min=-33.075 [C]\n   *************\n   *************  ** Warning ** CalcDoe2DXCoil: Coil:Cooling:DX:SingleSpeed=\"COIL COOLING DX SINGLE SPEED 8 35KBTU/HR 14.0SEER\" - Low condenser dry-bulb temperature error continues...\n   *************  **   ~~~   **   This error occurred 328 total times;\n   *************  **   ~~~   **   during Warmup 0 times;\n   *************  **   ~~~   **   during Sizing 0 times.\n   *************  **   ~~~   **   Max=-2.500000E-002 [C]  Min=-33.075 [C]\n   *************\n   *************  ** Warning ** CalcDoe2DXCoil: Coil:Cooling:DX:SingleSpeed=\"COIL COOLING DX SINGLE SPEED 7 35KBTU/HR 14.0SEER\" - Low condenser dry-bulb temperature error continues...\n   *************  **   ~~~   **   This error occurred 328 total times;\n   *************  **   ~~~   **   during Warmup 0 times;\n   *************  **   ~~~   **   during Sizing 0 times.\n   *************  **   ~~~   **   Max=-2.500000E-002 [C]  Min=-33.075 [C]\n   *************\n   *************  ** Warning ** CalcDoe2DXCoil: Coil:Cooling:DX:SingleSpeed=\"COIL COOLING DX SINGLE SPEED 5 34KBTU/HR 14.0SEER\" - Low condenser dry-bulb temperature error continues...\n   *************  **   ~~~   **   This error occurred 327 total times;\n   *************  **   ~~~   **   during Warmup 0 times;\n   *************  **   ~~~   **   during Sizing 0 times.\n   *************  **   ~~~   **   Max=-2.500000E-002 [C]  Min=-33.075 [C]\n   *************\n   *************  ** Warning ** CalcDoe2DXCoil: Coil:Cooling:DX:SingleSpeed=\"COIL COOLING DX SINGLE SPEED 4 34KBTU/HR 14.0SEER\" - Low condenser dry-bulb temperature error continues...\n   *************  **   ~~~   **   This error occurred 322 total times;\n   *************  **   ~~~   **   during Warmup 0 times;\n   *************  **   ~~~   **   during Sizing 0 times.\n   *************  **   ~~~   **   Max=-2.500000E-002 [C]  Min=-33.075 [C]\n   *************\n   *************  ** Warning ** CalcDoe2DXCoil: Coil:Cooling:DX:SingleSpeed=\"COIL COOLING DX SINGLE SPEED 9 35KBTU/HR 14.0SEER\" - Low condenser dry-bulb temperature error continues...\n   *************  **   ~~~   **   This error occurred 266 total times;\n   *************  **   ~~~   **   during Warmup 0 times;\n   *************  **   ~~~   **   during Sizing 0 times.\n   *************  **   ~~~   **   Max=-2.500000E-002 [C]  Min=-33.075 [C]\n   *************\n   *************  ** Warning ** CalcDoe2DXCoil: Coil:Cooling:DX:SingleSpeed=\"COIL COOLING DX SINGLE SPEED 1 66KBTU/HR 9.7EER\" - Full load outlet temperature indicates a possibility of frost/freeze error continues. Outlet air temperature statistics follow:\n   *************  **   ~~~   **   This error occurred 41 total times;\n   *************  **   ~~~   **   during Warmup 0 times;\n   *************  **   ~~~   **   during Sizing 0 times.\n   *************  **   ~~~   **   Max=1.991731  Min=-1.330302\n   *************\n   *************  ** Warning ** CalcDoe2DXCoil: Coil:Cooling:DX:SingleSpeed=\"COIL COOLING DX SINGLE SPEED 3 35KBTU/HR 14.0SEER\" - Full load outlet temperature indicates a possibility of frost/freeze error continues. Outlet air temperature statistics follow:\n   *************  **   ~~~   **   This error occurred 31 total times;\n   *************  **   ~~~   **   during Warmup 0 times;\n   *************  **   ~~~   **   during Sizing 0 times.\n   *************  **   ~~~   **   Max=1.902455  Min=-0.759769\n   *************\n   *************  ** Warning ** CalcDoe2DXCoil: Coil:Cooling:DX:SingleSpeed=\"COIL COOLING DX SINGLE SPEED 2 34KBTU/HR 14.0SEER\" - Full load outlet temperature indicates a possibility of frost/freeze error continues. Outlet air temperature statistics follow:\n   *************  **   ~~~   **   This error occurred 36 total times;\n   *************  **   ~~~   **   during Warmup 0 times;\n   *************  **   ~~~   **   during Sizing 0 times.\n   *************  **   ~~~   **   Max=1.964364  Min=-1.001302\n   *************\n   *************  ** Warning ** CalcDoe2DXCoil: Coil:Cooling:DX:SingleSpeed=\"COIL COOLING DX SINGLE SPEED 6 34KBTU/HR 14.0SEER\" - Full load outlet temperature indicates a possibility of frost/freeze error continues. Outlet air temperature statistics follow:\n   *************  **   ~~~   **   This error occurred 36 total times;\n   *************  **   ~~~   **   during Warmup 0 times;\n   *************  **   ~~~   **   during Sizing 0 times.\n   *************  **   ~~~   **   Max=1.962071  Min=-1.004377\n   *************\n   *************  ** Warning ** CalcDoe2DXCoil: Coil:Cooling:DX:SingleSpeed=\"COIL COOLING DX SINGLE SPEED 8 35KBTU/HR 14.0SEER\" - Full load outlet temperature indicates a possibility of frost/freeze error continues. Outlet air temperature statistics follow:\n   *************  **   ~~~   **   This error occurred 33 total times;\n   *************  **   ~~~   **   during Warmup 0 times;\n   *************  **   ~~~   **   during Sizing 0 times.\n   *************  **   ~~~   **   Max=1.993656  Min=-0.786327\n   *************\n   *************  ** Warning ** CalcDoe2DXCoil: Coil:Cooling:DX:SingleSpeed=\"COIL COOLING DX SINGLE SPEED 7 35KBTU/HR 14.0SEER\" - Full load outlet temperature indicates a possibility of frost/freeze error continues. Outlet air temperature statistics follow:\n   *************  **   ~~~   **   This error occurred 33 total times;\n   *************  **   ~~~   **   during Warmup 0 times;\n   *************  **   ~~~   **   during Sizing 0 times.\n   *************  **   ~~~   **   Max=1.993628  Min=-0.786064\n   *************\n   *************  ** Warning ** CalcDoe2DXCoil: Coil:Cooling:DX:SingleSpeed=\"COIL COOLING DX SINGLE SPEED 5 34KBTU/HR 14.0SEER\" - Full load outlet temperature indicates a possibility of frost/freeze error continues. Outlet air temperature statistics follow:\n   *************  **   ~~~   **   This error occurred 36 total times;\n   *************  **   ~~~   **   during Warmup 0 times;\n   *************  **   ~~~   **   during Sizing 0 times.\n   *************  **   ~~~   **   Max=1.96115  Min=-1.004504\n   *************\n   *************  ** Warning ** CalcDoe2DXCoil: Coil:Cooling:DX:SingleSpeed=\"COIL COOLING DX SINGLE SPEED 10 67KBTU/HR 9.7EER\" - Full load outlet temperature indicates a possibility of frost/freeze error continues. Outlet air temperature statistics follow:\n   *************  **   ~~~   **   This error occurred 29 total times;\n   *************  **   ~~~   **   during Warmup 0 times;\n   *************  **   ~~~   **   during Sizing 0 times.\n   *************  **   ~~~   **   Max=1.989887  Min=-0.900781\n   *************\n   *************  ** Warning ** CalcDoe2DXCoil: Coil:Cooling:DX:SingleSpeed=\"COIL COOLING DX SINGLE SPEED 4 34KBTU/HR 14.0SEER\" - Full load outlet temperature indicates a possibility of frost/freeze error continues. Outlet air temperature statistics follow:\n   *************  **   ~~~   **   This error occurred 34 total times;\n   *************  **   ~~~   **   during Warmup 0 times;\n   *************  **   ~~~   **   during Sizing 0 times.\n   *************  **   ~~~   **   Max=1.951675  Min=-1.010427\n   *************\n   *************  ** Warning ** CalcDoe2DXCoil: Coil:Cooling:DX:SingleSpeed=\"COIL COOLING DX SINGLE SPEED 9 35KBTU/HR 14.0SEER\" - Full load outlet temperature indicates a possibility of frost/freeze error continues. Outlet air temperature statistics follow:\n   *************  **   ~~~   **   This error occurred 12 total times;\n   *************  **   ~~~   **   during Warmup 0 times;\n   *************  **   ~~~   **   during Sizing 0 times.\n   *************  **   ~~~   **   Max=1.913394  Min=-0.332049\n   *************\n   *************\n   ************* ===== Final Error Summary =====\n   ************* The following error categories occurred.  Consider correcting or noting.\n   ************* Nominally Unused Constructions\n   ************* ..The nominally unused constructions warning is provided to alert you to potential conditions that can cause\n   ************* ..extra time during simulation. Each construction is calculated by the algorithm indicated in the HeatBalanceAlgorithm\n   ************* ..object. You may remove the constructions indicated (when you use the DisplayExtraWarnings option).\n   *************\n   ************* EnergyPlus Warmup Error Summary. During Warmup: 0 Warning; 0 Severe Errors.\n   ************* EnergyPlus Sizing Error Summary. During Sizing: 87 Warning; 0 Severe Errors.\n   ************* EnergyPlus Completed Successfully-- 3706 Warning; 0 Severe Errors; Elapsed Time=00hr 01min 12.12sec\n",
   "file_format_version" : "0.0.1",
   "file_paths" : [ "../weather", "../seeds", "../seed" ],
   "hash" : "BE541009",
   "measure_paths" : [ "../measures" ],
   "name" : "LHS Autogenerated 284",
   "osa_id" : "4fef0e0f-5396-4c55-a6e1-2cd6803db3ab",
   "osd_id" : "e45d4708-a47e-4b58-bf1e-261b29e19912",
   "run_directory" : "./run",
   "seed_file" : "seed.osm",
   "started_at" : "20170710T183546Z",
   "steps" : [
      {
         "arguments" : {
            "__SKIP__" : false,
            "building_type" : "RetailStripmall",
            "climate_zone" : "NECB HDD Method",
            "epw_file" : "CAN_BC_Smithers.719500_CWEC.epw",
            "template" : "NECB 2011"
         },
         "measure_dir_name" : "create_prototype_building",
         "name" : "create_prototype_building",
         "result" : {
            "completed_at" : "20170710T183654Z",
            "measure_class_name" : "CreatePrototypeBuilding",
            "measure_display_name" : "Create Prototype Building",
            "measure_name" : "create_prototype_building",
            "measure_taxonomy" : "Whole Building.Space Types",
            "measure_type" : "ModelMeasure",
            "measure_uid" : "ae90fsd7-a651-467a-bc8d-29d310b0f937",
            "measure_version_id" : "c6ec5c18-5595-459f-a082-09a19c8c869c",
            "measure_version_modified" : "20170519T182315Z",
            "measure_xml_checksum" : "057E8D9D",
            "started_at" : "20170710T183548Z",
            "stderr" : "",
            "stdout" : "[OpenStudio.Measure] <0> OSArgumentVector is deprecated, use OpenStudio::Measure::OSArgumentVector instead.\n[openstudio.EpwFile] <0> Successive data points (1962-Jan-31 to 1960-Feb-01, ending on line 753) are greater than 1 day apart in EPW file '/usr/local/bundle/bundler/gems/openstudio-standards-f448df66933d/openstudio-standards/data/weather/CAN_BC_Smithers.719500_CWEC.epw'. Data will be treated as typical (TMY)\n[openstudio.setFileExtension] <0> Path p, '/usr/local/bundle/bundler/gems/openstudio-standards-f448df66933d/openstudio-standards/data/weather/CAN_BC_Smithers.719500_CWEC.ddy', has an unexpected file extension. Was expecting 'idf'.\n[openstudio.model.YearDescription] <1> 'UseWeatherFile' is not yet a supported option for YearDescription\n[openstudio.model.YearDescription] <1> 'UseWeatherFile' is not yet a supported option for YearDescription\n[openstudio.setFileExtension] <0> Path p, '/usr/local/bundle/bundler/gems/openstudio-standards-f448df66933d/openstudio-standards/data/weather/CAN_BC_Smithers.719500_CWEC.ddy', has an unexpected file extension. Was expecting 'idf'.\n[openstudio.model.YearDescription] <1> 'UseWeatherFile' is not yet a supported option for YearDescription\n[openstudio.model.YearDescription] <1> 'UseWeatherFile' is not yet a supported option for YearDescription\n[openstudio.EpwFile] <0> Successive data points (1962-Jan-31 to 1960-Feb-01, ending on line 753) are greater than 1 day apart in EPW file '/usr/local/bundle/bundler/gems/openstudio-standards-f448df66933d/openstudio-standards/data/weather/CAN_BC_Smithers.719500_CWEC.epw'. Data will be treated as typical (TMY)\n[openstudio.weather.Model] <0> Could not find ground temperatures; will use generic temperatures, which will skew results.\n[openstudio.setFileExtension] <0> Path p, '/usr/local/bundle/bundler/gems/openstudio-standards-f448df66933d/openstudio-standards/data/weather/CAN_BC_Smithers.719500_CWEC.ddy', has an unexpected file extension. Was expecting 'idf'.\n[openstudio.model.YearDescription] <1> 'UseWeatherFile' is not yet a supported option for YearDescription\n[openstudio.model.YearDescription] <1> 'UseWeatherFile' is not yet a supported option for YearDescription\n[openstudio.EpwFile] <0> Successive data points (1962-Jan-31 to 1960-Feb-01, ending on line 753) are greater than 1 day apart in EPW file '/usr/local/bundle/bundler/gems/openstudio-standards-f448df66933d/openstudio-standards/data/weather/CAN_BC_Smithers.719500_CWEC.epw'. Data will be treated as typical (TMY)\n[openstudio.setFileExtension] <0> Path p, '/usr/local/bundle/bundler/gems/openstudio-standards-f448df66933d/openstudio-standards/data/weather/CAN_BC_Smithers.719500_CWEC.ddy', has an unexpected file extension. Was expecting 'idf'.\n[openstudio.model.YearDescription] <1> 'UseWeatherFile' is not yet a supported option for YearDescription\n[openstudio.model.YearDescription] <1> 'UseWeatherFile' is not yet a supported option for YearDescription\n[openstudio.setFileExtension] <0> Path p, '/usr/local/bundle/bundler/gems/openstudio-standards-f448df66933d/openstudio-standards/data/weather/CAN_BC_Smithers.719500_CWEC.ddy', has an unexpected file extension. Was expecting 'idf'.\n[openstudio.model.YearDescription] <1> 'UseWeatherFile' is not yet a supported option for YearDescription\n[openstudio.model.YearDescription] <1> 'UseWeatherFile' is not yet a supported option for YearDescription\n[openstudio.EpwFile] <0> Successive data points (1962-Jan-31 to 1960-Feb-01, ending on line 753) are greater than 1 day apart in EPW file '/usr/local/bundle/bundler/gems/openstudio-standards-f448df66933d/openstudio-standards/data/weather/CAN_BC_Smithers.719500_CWEC.epw'. Data will be treated as typical (TMY)\n[openstudio.setFileExtension] <0> Path p, '/usr/local/bundle/bundler/gems/openstudio-standards-f448df66933d/openstudio-standards/data/weather/CAN_BC_Smithers.719500_CWEC.ddy', has an unexpected file extension. Was expecting 'idf'.\n[openstudio.model.YearDescription] <1> 'UseWeatherFile' is not yet a supported option for YearDescription\n[openstudio.model.YearDescription] <1> 'UseWeatherFile' is not yet a supported option for YearDescription\n[openstudio.setFileExtension] <0> Path p, '/usr/local/bundle/bundler/gems/openstudio-standards-f448df66933d/openstudio-standards/data/weather/CAN_BC_Smithers.719500_CWEC.ddy', has an unexpected file extension. Was expecting 'idf'.\n[openstudio.model.YearDescription] <1> 'UseWeatherFile' is not yet a supported option for YearDescription\n[openstudio.model.YearDescription] <1> 'UseWeatherFile' is not yet a supported option for YearDescription\n[utilities.idf.WorkspaceObject] <0> Object of type 'Schedule:Constant' and named 'Always Off Discrete', points to an object named OnOff 1 from field 1, but that object cannot be located.\n[utilities.idf.WorkspaceObject] <0> Object of type 'Schedule:Constant' and named 'Always On Continuous', points to an object named Fractional 1 from field 1, but that object cannot be located.\n[utilities.idf.WorkspaceObject] <0> Object of type 'Schedule:Constant' and named 'Always Off Discrete', points to an object named OnOff 1 from field 1, but that object cannot be located.\n[utilities.idf.WorkspaceObject] <0> Object of type 'Schedule:Constant' and named 'Always On Continuous', points to an object named Fractional 1 from field 1, but that object cannot be located.\n[openstudio.standards.Fan] <0> For Fan Constant Volume 1, there is no greater nominal HP.  Use the efficiency of the largest motor category.\n[openstudio.standards.Fan] <0> For Fan Constant Volume 10, there is no greater nominal HP.  Use the efficiency of the largest motor category.\n[openstudio.standards.Fan] <0> For Fan Constant Volume 2, there is no greater nominal HP.  Use the efficiency of the largest motor category.\n[openstudio.standards.Fan] <0> For Fan Constant Volume 3, there is no greater nominal HP.  Use the efficiency of the largest motor category.\n[openstudio.standards.Fan] <0> For Fan Constant Volume 4, there is no greater nominal HP.  Use the efficiency of the largest motor category.\n[openstudio.standards.Fan] <0> For Fan Constant Volume 5, there is no greater nominal HP.  Use the efficiency of the largest motor category.\n[openstudio.standards.Fan] <0> For Fan Constant Volume 6, there is no greater nominal HP.  Use the efficiency of the largest motor category.\n[openstudio.standards.Fan] <0> For Fan Constant Volume 7, there is no greater nominal HP.  Use the efficiency of the largest motor category.\n[openstudio.standards.Fan] <0> For Fan Constant Volume 8, there is no greater nominal HP.  Use the efficiency of the largest motor category.\n[openstudio.standards.Fan] <0> For Fan Constant Volume 9, there is no greater nominal HP.  Use the efficiency of the largest motor category.\n[openstudio.EpwFile] <0> Successive data points (1962-Jan-31 to 1960-Feb-01, ending on line 753) are greater than 1 day apart in EPW file '/usr/local/bundle/bundler/gems/openstudio-standards-f448df66933d/openstudio-standards/data/weather/CAN_BC_Smithers.719500_CWEC.epw'. Data will be treated as typical (TMY)\n[openstudio.setFileExtension] <0> Path p, '/usr/local/bundle/bundler/gems/openstudio-standards-f448df66933d/openstudio-standards/data/weather/CAN_BC_Smithers.719500_CWEC.ddy', has an unexpected file extension. Was expecting 'idf'.\n[openstudio.model.YearDescription] <1> 'UseWeatherFile' is not yet a supported option for YearDescription\n[openstudio.model.YearDescription] <1> 'UseWeatherFile' is not yet a supported option for YearDescription\n[openstudio.setFileExtension] <0> Path p, '/usr/local/bundle/bundler/gems/openstudio-standards-f448df66933d/openstudio-standards/data/weather/CAN_BC_Smithers.719500_CWEC.ddy', has an unexpected file extension. Was expecting 'idf'.\n[openstudio.model.YearDescription] <1> 'UseWeatherFile' is not yet a supported option for YearDescription\n[openstudio.model.YearDescription] <1> 'UseWeatherFile' is not yet a supported option for YearDescription\n[openstudio.EpwFile] <0> Successive data points (1962-Jan-31 to 1960-Feb-01, ending on line 753) are greater than 1 day apart in EPW file '/usr/local/bundle/bundler/gems/openstudio-standards-f448df66933d/openstudio-standards/data/weather/CAN_BC_Smithers.719500_CWEC.epw'. Data will be treated as typical (TMY)\n[openstudio.setFileExtension] <0> Path p, '/usr/local/bundle/bundler/gems/openstudio-standards-f448df66933d/openstudio-standards/data/weather/CAN_BC_Smithers.719500_CWEC.ddy', has an unexpected file extension. Was expecting 'idf'.\n[openstudio.model.YearDescription] <1> 'UseWeatherFile' is not yet a supported option for YearDescription\n[openstudio.model.YearDescription] <1> 'UseWeatherFile' is not yet a supported option for YearDescription\n[openstudio.setFileExtension] <0> Path p, '/usr/local/bundle/bundler/gems/openstudio-standards-f448df66933d/openstudio-standards/data/weather/CAN_BC_Smithers.719500_CWEC.ddy', has an unexpected file extension. Was expecting 'idf'.\n[openstudio.model.YearDescription] <1> 'UseWeatherFile' is not yet a supported option for YearDescription\n[openstudio.model.YearDescription] <1> 'UseWeatherFile' is not yet a supported option for YearDescription\n[openstudio.EpwFile] <0> Successive data points (1962-Jan-31 to 1960-Feb-01, ending on line 753) are greater than 1 day apart in EPW file '/usr/local/bundle/bundler/gems/openstudio-standards-f448df66933d/openstudio-standards/data/weather/CAN_BC_Smithers.719500_CWEC.epw'. Data will be treated as typical (TMY)\n[openstudio.setFileExtension] <0> Path p, '/usr/local/bundle/bundler/gems/openstudio-standards-f448df66933d/openstudio-standards/data/weather/CAN_BC_Smithers.719500_CWEC.ddy', has an unexpected file extension. Was expecting 'idf'.\n[openstudio.model.YearDescription] <1> 'UseWeatherFile' is not yet a supported option for YearDescription\n[openstudio.model.YearDescription] <1> 'UseWeatherFile' is not yet a supported option for YearDescription\n[openstudio.setFileExtension] <0> Path p, '/usr/local/bundle/bundler/gems/openstudio-standards-f448df66933d/openstudio-standards/data/weather/CAN_BC_Smithers.719500_CWEC.ddy', has an unexpected file extension. Was expecting 'idf'.\n[openstudio.model.YearDescription] <1> 'UseWeatherFile' is not yet a supported option for YearDescription\n[openstudio.model.YearDescription] <1> 'UseWeatherFile' is not yet a supported option for YearDescription\n[openstudio.EpwFile] <0> Successive data points (1962-Jan-31 to 1960-Feb-01, ending on line 753) are greater than 1 day apart in EPW file '/usr/local/bundle/bundler/gems/openstudio-standards-f448df66933d/openstudio-standards/data/weather/CAN_BC_Smithers.719500_CWEC.epw'. Data will be treated as typical (TMY)\n[openstudio.setFileExtension] <0> Path p, '/usr/local/bundle/bundler/gems/openstudio-standards-f448df66933d/openstudio-standards/data/weather/CAN_BC_Smithers.719500_CWEC.ddy', has an unexpected file extension. Was expecting 'idf'.\n[openstudio.model.YearDescription] <1> 'UseWeatherFile' is not yet a supported option for YearDescription\n[openstudio.model.YearDescription] <1> 'UseWeatherFile' is not yet a supported option for YearDescription\n[openstudio.setFileExtension] <0> Path p, '/usr/local/bundle/bundler/gems/openstudio-standards-f448df66933d/openstudio-standards/data/weather/CAN_BC_Smithers.719500_CWEC.ddy', has an unexpected file extension. Was expecting 'idf'.\n[openstudio.model.YearDescription] <1> 'UseWeatherFile' is not yet a supported option for YearDescription\n[openstudio.model.YearDescription] <1> 'UseWeatherFile' is not yet a supported option for YearDescription\n[openstudio.EpwFile] <0> Successive data points (1962-Jan-31 to 1960-Feb-01, ending on line 753) are greater than 1 day apart in EPW file '/usr/local/bundle/bundler/gems/openstudio-standards-f448df66933d/openstudio-standards/data/weather/CAN_BC_Smithers.719500_CWEC.epw'. Data will be treated as typical (TMY)\n[openstudio.setFileExtension] <0> Path p, '/usr/local/bundle/bundler/gems/openstudio-standards-f448df66933d/openstudio-standards/data/weather/CAN_BC_Smithers.719500_CWEC.ddy', has an unexpected file extension. Was expecting 'idf'.\n[openstudio.model.YearDescription] <1> 'UseWeatherFile' is not yet a supported option for YearDescription\n[openstudio.model.YearDescription] <1> 'UseWeatherFile' is not yet a supported option for YearDescription\n[openstudio.setFileExtension] <0> Path p, '/usr/local/bundle/bundler/gems/openstudio-standards-f448df66933d/openstudio-standards/data/weather/CAN_BC_Smithers.719500_CWEC.ddy', has an unexpected file extension. Was expecting 'idf'.\n[openstudio.model.YearDescription] <1> 'UseWeatherFile' is not yet a supported option for YearDescription\n[openstudio.model.YearDescription] <1> 'UseWeatherFile' is not yet a supported option for YearDescription\n[openstudio.EpwFile] <0> Successive data points (1962-Jan-31 to 1960-Feb-01, ending on line 753) are greater than 1 day apart in EPW file '/usr/local/bundle/bundler/gems/openstudio-standards-f448df66933d/openstudio-standards/data/weather/CAN_BC_Smithers.719500_CWEC.epw'. Data will be treated as typical (TMY)\n[openstudio.setFileExtension] <0> Path p, '/usr/local/bundle/bundler/gems/openstudio-standards-f448df66933d/openstudio-standards/data/weather/CAN_BC_Smithers.719500_CWEC.ddy', has an unexpected file extension. Was expecting 'idf'.\n[openstudio.model.YearDescription] <1> 'UseWeatherFile' is not yet a supported option for YearDescription\n[openstudio.model.YearDescription] <1> 'UseWeatherFile' is not yet a supported option for YearDescription\n[openstudio.setFileExtension] <0> Path p, '/usr/local/bundle/bundler/gems/openstudio-standards-f448df66933d/openstudio-standards/data/weather/CAN_BC_Smithers.719500_CWEC.ddy', has an unexpected file extension. Was expecting 'idf'.\n[openstudio.model.YearDescription] <1> 'UseWeatherFile' is not yet a supported option for YearDescription\n[openstudio.model.YearDescription] <1> 'UseWeatherFile' is not yet a supported option for YearDescription\n[openstudio.EpwFile] <0> Successive data points (1962-Jan-31 to 1960-Feb-01, ending on line 753) are greater than 1 day apart in EPW file '/usr/local/bundle/bundler/gems/openstudio-standards-f448df66933d/openstudio-standards/data/weather/CAN_BC_Smithers.719500_CWEC.epw'. Data will be treated as typical (TMY)\n[openstudio.setFileExtension] <0> Path p, '/usr/local/bundle/bundler/gems/openstudio-standards-f448df66933d/openstudio-standards/data/weather/CAN_BC_Smithers.719500_CWEC.ddy', has an unexpected file extension. Was expecting 'idf'.\n[openstudio.model.YearDescription] <1> 'UseWeatherFile' is not yet a supported option for YearDescription\n[openstudio.model.YearDescription] <1> 'UseWeatherFile' is not yet a supported option for YearDescription\n[openstudio.setFileExtension] <0> Path p, '/usr/local/bundle/bundler/gems/openstudio-standards-f448df66933d/openstudio-standards/data/weather/CAN_BC_Smithers.719500_CWEC.ddy', has an unexpected file extension. Was expecting 'idf'.\n[openstudio.model.YearDescription] <1> 'UseWeatherFile' is not yet a supported option for YearDescription\n[openstudio.model.YearDescription] <1> 'UseWeatherFile' is not yet a supported option for YearDescription\n[openstudio.EpwFile] <0> Successive data points (1962-Jan-31 to 1960-Feb-01, ending on line 753) are greater than 1 day apart in EPW file '/usr/local/bundle/bundler/gems/openstudio-standards-f448df66933d/openstudio-standards/data/weather/CAN_BC_Smithers.719500_CWEC.epw'. Data will be treated as typical (TMY)\n[openstudio.setFileExtension] <0> Path p, '/usr/local/bundle/bundler/gems/openstudio-standards-f448df66933d/openstudio-standards/data/weather/CAN_BC_Smithers.719500_CWEC.ddy', has an unexpected file extension. Was expecting 'idf'.\n[openstudio.model.YearDescription] <1> 'UseWeatherFile' is not yet a supported option for YearDescription\n[openstudio.model.YearDescription] <1> 'UseWeatherFile' is not yet a supported option for YearDescription\n[openstudio.setFileExtension] <0> Path p, '/usr/local/bundle/bundler/gems/openstudio-standards-f448df66933d/openstudio-standards/data/weather/CAN_BC_Smithers.719500_CWEC.ddy', has an unexpected file extension. Was expecting 'idf'.\n[openstudio.model.YearDescription] <1> 'UseWeatherFile' is not yet a supported option for YearDescription\n[openstudio.model.YearDescription] <1> 'UseWeatherFile' is not yet a supported option for YearDescription\n[openstudio.EpwFile] <0> Successive data points (1962-Jan-31 to 1960-Feb-01, ending on line 753) are greater than 1 day apart in EPW file '/usr/local/bundle/bundler/gems/openstudio-standards-f448df66933d/openstudio-standards/data/weather/CAN_BC_Smithers.719500_CWEC.epw'. Data will be treated as typical (TMY)\n[openstudio.setFileExtension] <0> Path p, '/usr/local/bundle/bundler/gems/openstudio-standards-f448df66933d/openstudio-standards/data/weather/CAN_BC_Smithers.719500_CWEC.ddy', has an unexpected file extension. Was expecting 'idf'.\n[openstudio.model.YearDescription] <1> 'UseWeatherFile' is not yet a supported option for YearDescription\n[openstudio.model.YearDescription] <1> 'UseWeatherFile' is not yet a supported option for YearDescription\n[openstudio.setFileExtension] <0> Path p, '/usr/local/bundle/bundler/gems/openstudio-standards-f448df66933d/openstudio-standards/data/weather/CAN_BC_Smithers.719500_CWEC.ddy', has an unexpected file extension. Was expecting 'idf'.\n[openstudio.model.YearDescription] <1> 'UseWeatherFile' is not yet a supported option for YearDescription\n[openstudio.model.YearDescription] <1> 'UseWeatherFile' is not yet a supported option for YearDescription\n[openstudio.EpwFile] <0> Successive data points (1962-Jan-31 to 1960-Feb-01, ending on line 753) are greater than 1 day apart in EPW file '/usr/local/bundle/bundler/gems/openstudio-standards-f448df66933d/openstudio-standards/data/weather/CAN_BC_Smithers.719500_CWEC.epw'. Data will be treated as typical (TMY)\n[openstudio.setFileExtension] <0> Path p, '/usr/local/bundle/bundler/gems/openstudio-standards-f448df66933d/openstudio-standards/data/weather/CAN_BC_Smithers.719500_CWEC.ddy', has an unexpected file extension. Was expecting 'idf'.\n[openstudio.model.YearDescription] <1> 'UseWeatherFile' is not yet a supported option for YearDescription\n[openstudio.model.YearDescription] <1> 'UseWeatherFile' is not yet a supported option for YearDescription\n[openstudio.setFileExtension] <0> Path p, '/usr/local/bundle/bundler/gems/openstudio-standards-f448df66933d/openstudio-standards/data/weather/CAN_BC_Smithers.719500_CWEC.ddy', has an unexpected file extension. Was expecting 'idf'.\n[openstudio.model.YearDescription] <1> 'UseWeatherFile' is not yet a supported option for YearDescription\n[openstudio.model.YearDescription] <1> 'UseWeatherFile' is not yet a supported option for YearDescription\n[openstudio.standards.Fan] <0> For Fan Constant Volume 1, there is no greater nominal HP.  Use the efficiency of the largest motor category.\n[openstudio.standards.Fan] <0> For Fan Constant Volume 10, there is no greater nominal HP.  Use the efficiency of the largest motor category.\n[openstudio.standards.Fan] <0> For Fan Constant Volume 2, there is no greater nominal HP.  Use the efficiency of the largest motor category.\n[openstudio.standards.Fan] <0> For Fan Constant Volume 3, there is no greater nominal HP.  Use the efficiency of the largest motor category.\n[openstudio.standards.Fan] <0> For Fan Constant Volume 4, there is no greater nominal HP.  Use the efficiency of the largest motor category.\n[openstudio.standards.Fan] <0> For Fan Constant Volume 5, there is no greater nominal HP.  Use the efficiency of the largest motor category.\n[openstudio.standards.Fan] <0> For Fan Constant Volume 6, there is no greater nominal HP.  Use the efficiency of the largest motor category.\n[openstudio.standards.Fan] <0> For Fan Constant Volume 7, there is no greater nominal HP.  Use the efficiency of the largest motor category.\n[openstudio.standards.Fan] <0> For Fan Constant Volume 8, there is no greater nominal HP.  Use the efficiency of the largest motor category.\n[openstudio.standards.Fan] <0> For Fan Constant Volume 9, there is no greater nominal HP.  Use the efficiency of the largest motor category.\n",
            "step_errors" : [],
            "step_files" : [],
            "step_info" : [
               "Started adding geometry",
               "Finished adding geometry",
               "Started adding weather file for climate zone: NECB HDD Method.",
               "Template =",
               "Setting LGstore1 to Space Function.Retail - sales",
               "Setting LGstore2 to Space Function.Retail - sales",
               "Setting SMstore1 to Space Function.Retail - sales",
               "Setting SMstore2 to Space Function.Retail - sales",
               "Setting SMstore3 to Space Function.Retail - sales",
               "Setting SMstore4 to Space Function.Retail - sales",
               "Setting SMstore5 to Space Function.Retail - sales",
               "Setting SMstore6 to Space Function.Retail - sales",
               "Setting SMstore7 to Space Function.Retail - sales",
               "Setting SMstore8 to Space Function.Retail - sales",
               "Started applying space types (loads)",
               "Space Function Retail - sales had no people, one has been created.",
               "Space Function Retail - sales set occupancy to 3.1 people/1000 ft^2.",
               "Space Function Retail - sales had no lights, one has been created.",
               "Space Function Retail - sales set LPD to 1.681531029 W/ft^2.",
               "Space Function Retail - sales had no electric equipment, one has been created.",
               "Space Function Retail - sales set electric EPD to 0.232255667 W/ft^2.",
               "Space Function Retail - sales had no ventilation specification, one has been created.",
               "Space Function Retail - sales set ventilation per area to 0.233 cfm/ft^2.",
               "Space Function Retail - sales had no infiltration objects, one has been created.",
               "Space Function Retail - sales set infiltration to 0.0 per ft^2 exterior surface area.",
               "Space Function Retail - sales set occupancy schedule to NECB-C-Occupancy.",
               "Space Function Retail - sales set occupant activity schedule to NECB-Activity.",
               "Space Function Retail - sales set lighting schedule to NECB-C-Lighting.",
               "Space Function Retail - sales set electric equipment schedule to NECB-C-Electric-Equipment.",
               "Space Function Retail - sales set infiltration schedule to Always On.",
               "Space Function Retail - sales set heating setpoint schedule to NECB-C-Thermostat Setpoint-Heating.",
               "Space Function Retail - sales set cooling setpoint schedule to NECB-C-Thermostat Setpoint-Cooling.",
               "Finished applying space types (loads)",
               "Started applying constructions",
               "Adding construction set: NECB 2011-NECB HDD Method-StripMall--is_residentialNo",
               "Adding construction Typical Insulated Exterior Mass Floor R-15.63.",
               "Adding construction Typical Insulated Exterior Mass Wall R-12.5.",
               "Adding construction Typical Insulated Metal Building Roof R-20.41.",
               "Adding construction Typical Interior Floor.",
               "Adding construction Typical Interior Wall.",
               "Adding construction Typical Interior Ceiling.",
               "Adding construction Typical Insulated Carpeted 6in Slab Floor.",
               "Adding construction U 0.55 SHGC 0.31 Dbl Ref-D Tint 6mm/6mm Air.",
               "Adding construction Typical Insulated Metal Door R-1.43.",
               "Adding construction U 0.35 SHGC 0.35 Dbl LoE (e2-.1) Tint 6mm/13mm Air.",
               "Adding construction Typical Overhead Door R-2.0.",
               "Adding construction U 0.48 SHGC 0.40 Dbl Ref-D Clr 6mm/13mm.",
               "Adding construction Typical Interior Window.",
               "Adding construction Typical Interior Door.",
               "Adding construction Typical Interior Partition.",
               "Finished applying constructions",
               "WWR NonRes = 0%; window = 0 ft2, wall = 0 ft2.",
               "WWR Res = 0%; window = 0 ft2, wall = 0 ft2.",
               "WWR Semiheated = 0%; window = 0 ft2, wall = 0 ft2.",
               "The skylight to roof ratios (SRRs) are: NonRes: 0%, Res: 0%.",
               "Started creating thermal zones",
               "Finished creating thermal zones",
               "Running simulation /mnt/openstudio/analysis_4fef0e0f-5396-4c55-a6e1-2cd6803db3ab/data_point_e45d4708-a47e-4b58-bf1e-261b29e19912/run/000_create_prototype_building/output/RetailStripmall-NECB 2011-NECB HDD Method-CAN_BC_Smithers.719500_CWEC.epw/SR0.",
               "Finished run.",
               "Started Adding HVAC",
               "Finished adding HVAC",
               "Started Adding Service Water Heating",
               "Adding service water loop.",
               "Adding water heater.",
               "Template =",
               "Finished adding Service Water Heating",
               "Set sizing factors to 1.3 for heating and 1.3 for cooling.",
               "Running simulation /mnt/openstudio/analysis_4fef0e0f-5396-4c55-a6e1-2cd6803db3ab/data_point_e45d4708-a47e-4b58-bf1e-261b29e19912/run/000_create_prototype_building/output/RetailStripmall-NECB 2011-NECB HDD Method-CAN_BC_Smithers.719500_CWEC.epw/SR1.",
               "Finished run.",
               "Started applying multizone vav OA sizing.",
               "Finished applying multizone vav OA sizing.",
               "Started applying prototype HVAC assumptions.",
               "For Fan Constant Volume 1: allowed_hp = 1.69HP; motor eff = 61.5%; total fan eff = 40% based on 2473 cfm.",
               "For Fan Constant Volume 10: allowed_hp = 1.72HP; motor eff = 61.5%; total fan eff = 40% based on 2507 cfm.",
               "For Fan Constant Volume 2: allowed_hp = 1.01HP; motor eff = 61.5%; total fan eff = 40% based on 1276 cfm.",
               "For Fan Constant Volume 3: allowed_hp = 1.01HP; motor eff = 61.5%; total fan eff = 40% based on 1302 cfm.",
               "For Fan Constant Volume 4: allowed_hp = 1.01HP; motor eff = 61.5%; total fan eff = 40% based on 1277 cfm.",
               "For Fan Constant Volume 5: allowed_hp = 1.01HP; motor eff = 61.5%; total fan eff = 40% based on 1276 cfm.",
               "For Fan Constant Volume 6: allowed_hp = 1.01HP; motor eff = 61.5%; total fan eff = 40% based on 1275 cfm.",
               "For Fan Constant Volume 7: allowed_hp = 1.01HP; motor eff = 61.5%; total fan eff = 40% based on 1298 cfm.",
               "For Fan Constant Volume 8: allowed_hp = 1.01HP; motor eff = 61.5%; total fan eff = 40% based on 1298 cfm.",
               "For Fan Constant Volume 9: allowed_hp = 1.01HP; motor eff = 61.5%; total fan eff = 40% based on 1305 cfm.",
               "Sp-SMstore1 Sys-3 Flr-1 Sch-C HPlcmt-north ZN NECB System 3 PSZ does not require an economizer because the total cooling capacity of 34702 Btu/hr is less than the minimum capacity of 68243 Btu/hr.",
               "Sp-SMstore2 Sys-3 Flr-1 Sch-C HPlcmt-north ZN NECB System 3 PSZ does not require an economizer because the total cooling capacity of 34010 Btu/hr is less than the minimum capacity of 68243 Btu/hr.",
               "Sp-SMstore8 Sys-3 Flr-1 Sch-C HPlcmt-east ZN NECB System 3 PSZ does not require an economizer because the total cooling capacity of 34778 Btu/hr is less than the minimum capacity of 68243 Btu/hr.",
               "Sp-SMstore5 Sys-3 Flr-1 Sch-C HPlcmt-north ZN NECB System 3 PSZ does not require an economizer because the total cooling capacity of 34599 Btu/hr is less than the minimum capacity of 68243 Btu/hr.",
               "Sp-LGstore2 Sys-3 Flr-1 Sch-C HPlcmt-north ZN NECB System 3 PSZ does not require an economizer because the total cooling capacity of 65910 Btu/hr is less than the minimum capacity of 68243 Btu/hr.",
               "Sp-SMstore6 Sys-3 Flr-1 Sch-C HPlcmt-north ZN NECB System 3 PSZ does not require an economizer because the total cooling capacity of 34005 Btu/hr is less than the minimum capacity of 68243 Btu/hr.",
               "Sp-SMstore3 Sys-3 Flr-1 Sch-C HPlcmt-north ZN NECB System 3 PSZ does not require an economizer because the total cooling capacity of 33999 Btu/hr is less than the minimum capacity of 68243 Btu/hr.",
               "Sp-SMstore4 Sys-3 Flr-1 Sch-C HPlcmt-north ZN NECB System 3 PSZ does not require an economizer because the total cooling capacity of 34597 Btu/hr is less than the minimum capacity of 68243 Btu/hr.",
               "Sp-LGstore1 Sys-3 Flr-1 Sch-C HPlcmt-west ZN NECB System 3 PSZ does not require an economizer because the total cooling capacity of 66828 Btu/hr is less than the minimum capacity of 68243 Btu/hr.",
               "Sp-SMstore7 Sys-3 Flr-1 Sch-C HPlcmt-north ZN NECB System 3 PSZ does not require an economizer because the total cooling capacity of 34049 Btu/hr is less than the minimum capacity of 68243 Btu/hr.",
               "Finished applying prototype HVAC assumptions.",
               "Started applying HVAC efficiency standards.",
               "For Sp-LGstore1 Sys-3 Flr-1 Sch-C HPlcmt-west ZN NECB System 3 PSZ, ERV not required based on 0% OA flow, design supply air flow of 2507cfm, and climate zone NECB HDD Method.",
               "For Sp-LGstore1 Sys-3 Flr-1 Sch-C HPlcmt-west ZN NECB System 3 PSZ, ERV not required based on exhaust heat content.",
               "For NECB 2011 NECB HDD Method:  Sp-LGstore1 Sys-3 Flr-1 Sch-C HPlcmt-west ZN NECB System 3 PSZ: DCV is not required for any system.",
               "For Sp-LGstore1 Sys-3 Flr-1 Sch-C HPlcmt-west ZN NECB System 3 PSZ: Annual occupied hours = 4168 hr/yr, assuming a 0.15 occupancy threshold.  This schedule will be used as the HVAC operation schedule.",
               "For Sp-LGstore1 Sys-3 Flr-1 Sch-C HPlcmt-west ZN NECB System 3 PSZ: Setting motorized OA damper schedule to Sp-LGstore1 Sys-3 Flr-1 Sch-C HPlcmt-west ZN NECB System 3 PSZ Occ Sch.",
               "For Sp-LGstore2 Sys-3 Flr-1 Sch-C HPlcmt-north ZN NECB System 3 PSZ, ERV not required based on 0% OA flow, design supply air flow of 2473cfm, and climate zone NECB HDD Method.",
               "For Sp-LGstore2 Sys-3 Flr-1 Sch-C HPlcmt-north ZN NECB System 3 PSZ, ERV not required based on exhaust heat content.",
               "For NECB 2011 NECB HDD Method:  Sp-LGstore2 Sys-3 Flr-1 Sch-C HPlcmt-north ZN NECB System 3 PSZ: DCV is not required for any system.",
               "For Sp-LGstore2 Sys-3 Flr-1 Sch-C HPlcmt-north ZN NECB System 3 PSZ: Annual occupied hours = 4168 hr/yr, assuming a 0.15 occupancy threshold.  This schedule will be used as the HVAC operation schedule.",
               "For Sp-LGstore2 Sys-3 Flr-1 Sch-C HPlcmt-north ZN NECB System 3 PSZ: Setting motorized OA damper schedule to Sp-LGstore2 Sys-3 Flr-1 Sch-C HPlcmt-north ZN NECB System 3 PSZ Occ Sch.",
               "For Sp-SMstore1 Sys-3 Flr-1 Sch-C HPlcmt-north ZN NECB System 3 PSZ, ERV not required based on 0% OA flow, design supply air flow of 1302cfm, and climate zone NECB HDD Method.",
               "For Sp-SMstore1 Sys-3 Flr-1 Sch-C HPlcmt-north ZN NECB System 3 PSZ, ERV not required based on exhaust heat content.",
               "For NECB 2011 NECB HDD Method:  Sp-SMstore1 Sys-3 Flr-1 Sch-C HPlcmt-north ZN NECB System 3 PSZ: DCV is not required for any system.",
               "For Sp-SMstore1 Sys-3 Flr-1 Sch-C HPlcmt-north ZN NECB System 3 PSZ: Annual occupied hours = 4168 hr/yr, assuming a 0.15 occupancy threshold.  This schedule will be used as the HVAC operation schedule.",
               "For Sp-SMstore1 Sys-3 Flr-1 Sch-C HPlcmt-north ZN NECB System 3 PSZ: Setting motorized OA damper schedule to Sp-SMstore1 Sys-3 Flr-1 Sch-C HPlcmt-north ZN NECB System 3 PSZ Occ Sch.",
               "For Sp-SMstore2 Sys-3 Flr-1 Sch-C HPlcmt-north ZN NECB System 3 PSZ, ERV not required based on 0% OA flow, design supply air flow of 1276cfm, and climate zone NECB HDD Method.",
               "For Sp-SMstore2 Sys-3 Flr-1 Sch-C HPlcmt-north ZN NECB System 3 PSZ, ERV not required based on exhaust heat content.",
               "For NECB 2011 NECB HDD Method:  Sp-SMstore2 Sys-3 Flr-1 Sch-C HPlcmt-north ZN NECB System 3 PSZ: DCV is not required for any system.",
               "For Sp-SMstore2 Sys-3 Flr-1 Sch-C HPlcmt-north ZN NECB System 3 PSZ: Annual occupied hours = 4168 hr/yr, assuming a 0.15 occupancy threshold.  This schedule will be used as the HVAC operation schedule.",
               "For Sp-SMstore2 Sys-3 Flr-1 Sch-C HPlcmt-north ZN NECB System 3 PSZ: Setting motorized OA damper schedule to Sp-SMstore2 Sys-3 Flr-1 Sch-C HPlcmt-north ZN NECB System 3 PSZ Occ Sch.",
[...]
DHqtwHvJYhet/W9jnBWMVzmMLjbxgrMJ51Gvla7+KpNxYNf+uEoCFfDVgFvLFgFnI1wJmIY9VMAt5rIJZyGMVzEIeq2AW8lgFsygYq3Ae8u0W5yGPVTgPeazCechjFc5DHqtwHvJYhfOQxyqchzxW4TzksQrX/7awzwvGKpzHFhp5wViF86jXytcmvpcbq+aR8AAL+WrALOSLAbOQrwXMQh6rYBbyWAWzkMcqmIU8VsEs5LEKZlEwVuE85NstzkMeq3Ae8liF85DHKpyHPFbhPOSxCuchj1U4D3mswnnIYxWu/21hnxeMVTiPLTTygrEK51Gvla8N1i03Vs2TdwEW8tWAWcgXA2YhXwuYhTxWwSzksQpmIY9VMAt5rIJZyGMVzKJgrMJ5yLdbnIc8VuE85LEK5yGPVTgPeazCechjFc5DHqtwHvJYhfOQxypc/9vCPi8Yq3AeW2jkBWMVzqNeK1+bX1hurJoHHAIs5KsBs5AvBsxCvhYwC3msglnIYxXMQh6rYBbyWAWzkMcqmEVh2BrKQ77d4jyKgqxQHkUZVyiPovgrlEdR5hvKoygODuVRlBSH8igKkUN5FOXLofrfFvZ5YSodymMLjbxgrMJ5rG/l78skvC6im9WpGuvbZYBsnhvbTG5GrTwBdm1U7DL/OdHp02g69pNmr9NSjtNrqa75m9srFzd7l2Hcx1r7/sBL9SiKZ0/ugmSen3z/+kuETGcCr2Jfx2+mJs649BMNx2yV46X2kmms5xgmkXlx3jcc8M1lLnOZy1zmMpe5zGUuc5nLXOYyl7nMZS5zmctc5jKXucxlLnOZy1zmMpe5zGUuc5nLXOYyl7nMZS5zmctc5jKXucxlLnOZy1zmMpe5zOW/1PKsHd3oOA58/dIzH6x12h3Lz6uaj8Ymqx+NPddxoJPFx2sbreUHiCdhlLbDYKzXfkQ2+drndNd/sjZp5189P4lCLw2icQbVSFI92b/Ql1GsG+U++fyLHumxv/qC5j9r9jst1TWfXO6YDzKbPxqhvkwN2BrppWz7w0inZ+PUnJ/M4nI6HuakzT31xxqJJaG+f/a7tZ/lNkdwqZrpVZC0k/yqlDMyx4MntbPzd+YNr5r/A66qtsQ3Hx3P2Be6HyZREhjBZ9mPy7ya5WFkvkIVR7fVkJZYwdjXZj/sO62Kz14eH+s+8TLQoam35uKczvfJKI6mE+2r779X/1j8/K794cpLFp9/Nxts7+Hq7Kur2Qlpe6PRc+PRDvV4lF6pH5Wr/q0aT8KwoR6vPiIJg6Fu7jt77zrv99buty9eSRSr5sfspXR+UB8zm0WpLnzNz/6Z3XGqXyBzmDJe6L37+L79Sc/U6enp/OTVU8xVF5f9Y9WXujwuYu19qvPkzxWfU/Xx5nwtXt2pKWtTDItKyYMc2h+8JAlGY+0PTERE8i4/k+/rncrlhZ5Mk6tm3WuRXdLH8+tZfyeF4eMyr7JtHlnXJUnj6JMu5zN/bF2naOINg3RWzmrx4NqvKrdYWtVVWd5IVm8rdbZH5ZuPOZbbefXGo/aVU1WtynYrz/q5lXfVUo//vG6mMMfBgXr921v131e/vVHnr968/fnXn9Qvr376eaBenL05KyfwPLtr6zvPjGgqjVQSxakaT6+zOhiqPNIkUV4yzIaXYDwqobg890bnQWf2Wuqi/M0l1uk0HquJFyf6eRh5adMzt/y97FI++NlF/rNSJ3P9iPbAdvES1gl/3mzSy/38mW/3fLM3H/n60puGqZrEUXYP049a6tF3x8eDwdnZow0HzxCHOMQhDnGIQxziEIc4xCHOXxNHJdPr7J/Aytfmh8r3ZoYo1j5pSEMa0pCGNKQhDWlIQxrSkKaY5jb/r1l/orkIp5o4xCEOcYhDHOIQhzjEIQ5xiFMH5/57Ax3zvYHnU+l7A7tO/hu2J08OD09OSEpSkpKUpCQlKUlJSlKSkpSkJCXpbpC6OamXSqSdnLTbdd3jPklJSlKSkpSkJCUpSUlKUpKSlKQk3Q3SriF9HgcCqXuSkzrO0VG3S1KSkpSkJCUpSUlKUpKSlKQkJSlJd4P00JC+vZpKpMc56Ul29J6SlKQkJSlJSUpSkpKUpCQlKUlJStLdIO0Z0v9oXyI9ykmfPRsMjo5ISlKSkpSkJCUpSUlKUpKSlKQkJelukPbzdyamWiLt56SDQb9PUpKSlKQkJSlJSUpSkpKUpCQlKUl3hfTIkL6MpGRBt5eTHh+7bq9HUpKSlKQkJSlJSUpSkpKUpCQlKUm3RrpE8WPvtrlW7K6dBmmoz6+8iW6n+i5tPnoRTeNkPcbsy2c+C671OAmicaiTXGGNxMGBeuL7ylO5kroN0iuVRNda+d01z0xuRm1vMtFjv9kw3o29NU9YHm0vTeNm467RUv1OxSfNsie55Z+UpLNQz/H2vfHwKoqz5zdCfVmBdqFxGY3T/VsdjK5So3ERhX55jfm1OZ/sn79M0ijWh+p8lux31fMw3nfU+fBqf6BevA6H1+n+OIqzS/D7r+rXs8FT87BUX6uuen3+u3o1HJrHPtoruqg/HiTDOJik/xIf8+OBH9x8fVl8jiyWaanAP20MTcUPspPkBWMdf+gdN1R+5k4bfpBMQm/2OBiH2dL+RRgNP/3QkPky0flLUOlskj3fnLyDj96NN/9p4TPNcePFpjjVqfKD60mo22N9e34zaja++5KxpQ47nfyPtZvNyPpe6mW67/5ohN6FDhuPG76+9KZhqiZxdBmEutGar3y4azx22p1W48YLp3rx96G5J2XPyW4zg8HZWeNzq5SOC9LpgnQOQTo9kE4fpHME0jkG6ZyAdJwOSghV0Q6qpB1UTTuoonZQVe2gytpB1bWDKmwHVdkuqrJd2L0aVdkuqrLdSpWtkun19cqXVJfqaLH2K8iI56iajHiGqsmI56eajLjvq8mIu76ajLjnq8mIO76ajLjfq8nIjayiDqiO5TZWUQdUyXITq6gDqmW5hVXUAVWz3MAq6oDqWW5fFXVQ92VQPcu9q6JO+Xq+DcZp9bZ1YX5UXkc8PRV1xNNTUUc8PRV1xO1eUUfc7hV1xO1eUUfc7hV1xO1eUUfuX1WFUBUtd7CqQqialntYVSFUVctdrKoQqq7lPlZVCFXZcierKgS7V6MqW25mVYXKV/b9by3Wfquw1OY6K//Qm3/tMMDC3bxFd/MWh5u36G3eor95i6PNWxxv3uJk8xYrnX1THlvY3wVvzOI85He2cB7ym144D/mdXpyH/CYwzkN+fxjnIb91jPOQ31XG9b8t7HN3G318C43c3UInd+u18rVf3lhurJp/uyPAQr4aMAv5YsAs5GsBs5DHKpiFPFbBLOSxCmYhj1UwC3msglkU/OYa5yH/6g/nIY9VOA95rMJ5yGMVzkMeq3Ae8liF85DHKpyHPFbhPOSxCtf/trDPC37Fj/PYQiMvGKtwHvVa+drvyCo3Vs2/RAtgIV8NmIV8MWAW8rWAWchjFcxCHqtgFvJYBbOQxyqYhTxWwSwKxiqch3y7xXnIYxXOQx6rcB7yWIXzkMcqnIc8VuE85LEK5yGPVTgPeazC9b8t7POCsQrnsYVGXjBW4TzqtfK1X0VSbqyaf1cJwEK+GjAL+WLALORrAbOQxyqYhTxWwSzksQpmIY9VMAt5rIJZFIxVOA/5dovzkMcqnIc8VuE85LEK5yGPVTgPeazCechjFc5DHqtwHvJYhet/W9jnBWMVzmMLjbxgrMJ51GvlaxPfy41V80h4gIV8NWAW8sWAWcjXAmYhj1UwC3msglnIYxXMQh6rYBbyWAWzKBircB7y7RbnIY9VOA95rMJ5yGMVzkMeq3Ae8liF85DHKpyHPFbhPOSxCtf/trDPC8YqnMcWGnnBWIXzqNfK1wbrlhur5sm7AAv5asAs5IsBs5CvBcxCHqtgFvJYBbOQxyqYhTxWwSzksQpmUTBW4Tzk2y3OQx6rcB7yWIXzkMcqnIc8VuE85LEK5yGPVTgPeazCechjFa7/bWGfF4xVOI8tNPKCsQrnUa+Vr80vLDdWzQMOARby1YBZyBcDZiFfC5iFPFbBLOSxCmYhj1UwC3msglnIYxXMojBsDeUh325xHkVBViiPoowrlEdR/BXKoyjzDeVRFAeH8ihKikN5FIXIoTyK8uVQ/W8L+7wwlQ7lsYVGXjBW4TzWt/L3ZRJeF9HN6lSN9e0yQDbPjW0mN6NWngC7Nip2mf+c6PRpNB37SbPXaSnH6bVU1/zN7ZWLm73LMO5jrX1/4KV6FMWzJ3dBMs9Pvn/9JUKmM4FXsa/jN1MTZ1z6iYZjtsrxUnvJNNZzDJPIvDjvGw745jKXucxlLnOZy1zmMpe5zGUuc5nLXOYyl7nMZS5zmctc5jKXucxlLnOZy1zmMpe5zGUuc5nLXOYyl7nMZS5zmctc5jKXucxlLnOZy1zm8l9qedaObnQcB75+6ZkP1jrtjuXnVc1HY5PVj8ae6zjQyeLjtY3W8gPEkzBK22Ew1ms/Ipt87XO66z9Zm7Tzr56fRKGXBtE4g2okqZ7sX+jLKNaNcp98/kWP9NhffUHznzX7nZbqmk8ud8wHmc0fjVBfpgZsjfRStv1hpNOzcWrOT2ZxOR0Pc9LmnvpjjcSSUN8/+93az3KbI7hUzfQqSNpJflXKGZnjwZPa2fk784ZXzf8BV1Vb4puPjmfsC90PkygJjOCz7MdlXs3yMDJfoYqj22pIS6xg7GuzH/adVsVnL4+PdZ94GejQ1FtzcU7n+2QUR9OJ9tX336t/LH5+1/5w5SWLz7+bDbb3cHX21dXshLS90ei58WiHejxKr9SPylX/Vo0nYdhQj1cfkYTBUDf3nb13nfd7a/fbF68kilXzY/ZSOj+oj5nNolQXvuZn/8zuONUvkDlMGS/03n183/6kZ+r09HR+8uop5qqLy/6x6ktdHhex9j7VefLnis+p+nhzvhav7tSUtSmGRaXkQQ7tD16SBKOx9gcmIiJ5l5/J9/VO5fJCT6bJVbPutcgu6eP59ay/k8LwcZlX2TaPrOuSpHH0SZfzmT+2rlM08YZBOitntXhw7VeVWyyt6qosbySrt5U626Pyzcccy+28euNR+8qpqlZlu5Vn/dzKu2qpx39eN1OY4+BAvf7trfrvq9/eqPNXb97+/OtP6pdXP/08UC/O3pyVE3ie3bX1nWdGNJVGKoniVI2n11kdDFUeaZIoLxlmw0swHpVQXJ57o/OgM3stdVH+5hLrdBqP1cSLE/08jLy06Zlb/l52KR/87CL/WamTuX5Ee2C7eAnrhD9vNunlfv7Mt3u+2ZuPfH3pTcNUTeIou4fpRy316Lvj48Hg7OzRhoNniEMc4hCHOMQhDnGIQxziEOeviaOS6XX2T2Dla/ND5XszQxRrnzSkIQ1pSEMa0pCGNKQhDWlIU0xzm//XrD/RXIRTTRziEIc4xCEOcYhDHOIQhzjEqYNz/72BjvnewPOp9L2BXSf/DduTJ4eHJyckJSlJSUpSkpKUpCQlKUlJSlKSknQ3SN2c1Esl0k5O2u267nGfpCQlKUlJSlKSkpSkJCUpSUlKUpLuBmnXkD6PA4HUPclJHefoqNslKUlJSlKSkpSkJCUpSUlKUpKSlKS7QXpoSN9eTSXS45z0JDt6T0lKUpKSlKQkJSlJSUpSkpKUpCQl6W6Q9gzpf7QvkR7lpM+eDQZHRyQlKUlJSlKSkpSkJCUpSUlKUpKSdDdI+/k7E1MtkfZz0sGg3ycpSUlKUpKSlKQkJSlJSUpSkpKUpLtCemRIX0ZSsqDby0mPj1231yMpSUlKUpKSlKQkJSlJSUpSkpKUpFsjXaL4sXfbXCt2106DNNTnV95Et1N9lzYfvYimcbIeY/blM58F13qcBNE41EmusEbi4EA98X3lqVxJ3QbplUqia6387ppnJjejtjeZ6LHfbBjvxt6aJyyPtpemcbNx12ipfqfik2bZk9zyT0rSWajnePveeHgVxdnzG6G+rEC70LiMxun+rQ5GV6nRuIhCv7zG/NqcT/bPXyZpFOueOp8l+131PIz3HXU+vNofqBevw+F1uj+O4uwS/P6r+vVs8NQ8LNXXqqten/+uXg2H5rGP9oou6o8HyTAOJum/xMf8eOAHN19fFp8ji2VaKvBPG0NT8YPsJHnBWMcfeicNlZ+504YfJJPQmz0OxmG2tH8RRsNPPzRkvkx0/hJUOptkzzcn7+Cjd+PNf1r4THPceLEpTnWq/OB6Eur2WN+e34yaje++ZGypw04n/2PtZjOyvpd6me67Pxqhd6HDxuOGry+9aZiqSRxdBqFutOYrH+4aj512p9W48cKpXvx9aO5J2XOy28xgcHbW+NwqpeOCdLognUOQTg+k0wfpHIF0jkE6JyAdp4MSQlW0gyppB1XTDqqoHVRVO6iydlB17aAK20FVtouqbBd2r0ZVtouqbLdSZatken298iXVpTparP0KMuI5qiYjnqFqMuL5qSYj7vtqMuKuryYj7vlqMuKOryYj7vdqMnIjq6gDqmO5jVXUAVWy3MQq6oBqWW5hFXVA1Sw3sIo6oHqW21dFHdR9GVTPcu+qqFO+nm+DcVq9bV2YH5XXEU9PRR3x9FTUEU9PRR1xu1fUEbd7RR1xu1fUEbd7RR1xu1fUkftXVSFURcsdrKoQqqblHlZVCFXVcherKoSqa7mPVRVCVbbcyaoKwe7VqMqWm1lVofKVff9bi7XfKiy1uc7KP/TmXzsMsHA3b9HdvMXh5i16m7fob97iaPMWx5u3ONm8xUpn35THFvZ3wRuzOA/5nS2ch/ymF85DfqcX5yG/CYzzkN8fxnnIbx3jPOR3lXH9bwv73N1GH99CI3e30Mndeq187Zc3lhur5t/uCLCQrwbMQr4YMAv5WsAs5LEKZiGPVTALeayCWchjFcxCHqtgFgW/ucZ5yL/6w3nIYxXOQx6rcB7yWIXzkMcqnIc8VuE85LEK5yGPVTgPeazC9b8t7POCX/HjPLbQyAvGKpxHvVa+9juyyo1V8y/RAljIVwNmIV8MmIV8LWAW8lgFs5DHKpiFPFbBLOSxCmYhj1Uwi4KxCuch325xHvJYhfOQxyqchzxW4TzksQrnIY9VOA95rMJ5yGMVzkMeq3D9bwv7vGCswnlsoZEXjFU4j3qtfO1XkZQbq+bfVQKwkK8GzEK+GDAL+VrALOSxCmYhj1UwC3msglnIYxXMQh6rYBYFYxXOQ77d4jzksQrnIY9VOA95rMJ5yGMVzkMeq3Ae8liF85DHKpyHPFbh+t8W9nnBWIXz2EIjLxircB71WvnaxPdyY9U8Eh5gIV8NmIV8MWAW8rWAWchjFcxCHqtgFvJYBbOQxyqYhTxWwSwKxiqch3y7xXnIYxXOQx6rcB7yWIXzkMcqnIc8VuE85LEK5yGPVTgPeazC9b8t7POCsQrnsYVGXjBW4TzqtfK1wbrlxqp58i7AQr4aMAv5YsAs5GsBs5DHKpiFPFbBLOSxCmYhj1UwC3msglkUjFU4D/l2i/OQxyqchzxW4TzksQrnIY9VOA95rMJ5yGMVzkMeq3Ae8liF639b2OcFYxXOYwuNvGCswnnUa+Vr8wvLjVXzgEOAhXw1YBbyxYBZyNcCZiGPVTALeayCWchjFcxCHqtgFvJYBbMoDFtDeci3W5xHUZAVyqMo4wrlURR/hfIoynxDeRTFwaE8ipLiUB5FIXIoj6J8OVT/28I+L0ylQ3lsoZEXjFU4j/Wt/H2ZhNdFdLM6VWN9uwyQzXNjm8nNqJUnwK6Nil3mPyc6fRpNx37S7HVaynF6LdU1f3N75eJm7zKM+1hr3x94qR5F8ezJXZDM85PvX3+JkOlM4FXs6/jN1MQZl36i4ZitcrzUXjKN9RzDJDIvzvuGA765zGUuc5nLXOYyl7nMZS5zmctc5jKXucxlLnOZy1zmMpe5/P/aO//ftK3v///++SvuPGkhGjgYEvJlzaaUkrZS21Sl1bRFVWTwBZwYG9kmCZryv799jcnC2oN9zYG9ss/TP2QZx34+H75fTyE+IIwwwggjjDDCCCOMMMIII4wwwggjjDDCCCOMMMIII4wwwggjjDDCCP+nwjMzuJVh6Dryva0erLXM+prPq6pHY6PlR2O7MnRllD1ea1QXDxBPvCA2PdeXuY/IRt97Tjf/ydrITL96fhJ4duwGfgJlRLGc1HpyEITSKPbk8zs5lL6zfEPz1yqtelU01ZPLdfUgs/pheHIQK7Ac6YWseTWUccePVfskFoOp309JK7virxyJBaF8vPoy91ludbgDUYlHbmRGaa8UM1LHk4vMpP06dn9U+RtYV22Brx4dT9gz3atJELlK8FXycpG7WRxK5jtUYXCnh7TAcn1HqvlQs6qaVy+O67IXDlzpqfFWydp0Pk+GYTCdSEf89JP4IXv93rwa2VH2/LuaYLtPo7PvRpMGMe3h8Fx5mJ70h/FIvBAN8ZswzjzPECfLZ0Se25eVmrV7Wf+6mzvfvrmTIBSV6+RW6r+I68QmG6qZr3rt52TF0e8gdahhnOldXn81b+RMnJ6ezhuvnGKqmnX7te6tLo5eKO2bMhc/aF6je75qr+zuTtWwVoMhGylpIQfzyo4id+hLp61KRESXaUt+LdeUi46eTKNRpWxfJF16Mu/P8jPJ806K3KWpzizrEsVhcCOL+czPLesUTOy+G8+KWWUnl76r1GJhVVZlsZAsLytlpof24qOOxXReXnhETVi6ajrTrTjrQzXdVQud/5CXU6hjb098/PJZ/HHx5ZPoXnz6/PbDa/Hu4vXbtnjT+dQpJnCerNry3lYpmogDEQVhLPzpOBkHfZGWNImEHfWT5MX1hwUUF22vdJ7szHZV9IovLqGMp6EvJnYYyXMvsOOKrZb83aQrn7zWS18r1Jj5KdoT2+wW8oQfNlvp5TH/TKd7OtkrO44c2FMvFpMwSNYwuVMVOz8eHbXbnc7OhgvPAAc4wAEOcIADHOAABzjAAc5/E0dE03HyT2DhSPWicOyZIgqlAxrQgAY0oAENaEADGtCABjSgWU1zl/5p1j9oet5UAgc4wAEOcIADHOAABzjAAQ5wyuA8fm+gpb43sDulvjewaaWfsJ2d7e8fH4MUpCAFKUhBClKQghSkIAUpSEEK0udB2khJ7ZgiraekzWajcdQCKUhBClKQghSkIAUpSEEKUpCCFKTPg7SpSM9DlyBtHKeklnV42GyCFKQgBSlIQQpSkIIUpCAFKUhBCtLnQbqvSD+PphTpUUp6nBwHL0EKUpCCFKQgBSlIQQpSkIIUpCAF6fMgPVCkv0uHIj1MSV+9arcPD0EKUpCCFKQgBSlIQQpSkIIUpCAF6fMgbaXvTEwlRdpKSdvtVgukIAUpSEEKUpCCFKQgBSlIQQpSkD4X0kNF+j6gKgs2DlLSo6NG4+AApCAFKUhBClKQghSkIAUpSEEKUpBujXSB4oT2XSVX7N6M3diT3ZE9kWYs7+PKzptgGkb5GLNvr3zljqUfuYHvyShVyJHY2xNnjiNskSqJOzceiSgYS+E0c66MboemPZlI36kYytvYzblgcZh2HIcV496oilZd86JZclGj+EVRPPPkHK9m+/1RECbXG54caNBmGoPAj2t30h2OYqXRCzynuMa8b7qTWvd9FAehbInuLKo1xbkX1izR7Y9qbfHmo9cfxzU/CJMu+POD+NBpv1SnxXIsmuJj909x0e+rc3d2V3Xqi72oH7qT+FfynBd7jnv7/TB5DS2WaAnXOTX6asS3k0ayXV+GV626IdKWOzUcN5p49uzE9b0kVOt5Qf/mF4PmS0TntyDi2SS5XjXe3rV9a89fXXmlOm7tUA1OcSocdzzxpOnLu+7tsGL8+C1jVezX6+mP3MmmZB07thPdy78Mz+5JzzgxHDmwp14sJmEwcD1pVOeRq3vjxDLrVePW9qYy+72v1qTkmmSZabc7HeOhWkinwaTTZNLZZ9I5YNJpMekcMukcMekcM+lYdS4hrhFtcQ1pi2tMW1yD2uIa1RbXsLa4xrXFNbAtrpHd4BrZDba1mmtkN7hGdkNrZItoOh4vfUl1oR0tlI6GDNlGejJkC+nJkO2jJ0POez0ZctbryZBzXk+GnPF6MuR815OhNzJNHaZxTG9jmjpMI5nexDR1mMYyvYVp6jCNZnoD09RhGs/09qWpw7UuM41neu/S1Ck+nu9cP9bftnrqpeI6ZPNo6pDNo6lDNo+mDjndNXXI6a6pQ053TR1yumvqkNNdU4fev3SFuEY0vYPpCnGNaXoP0xXiGtX0LqYrxDWu6X1MV4hrZNM7ma4Q21rNNbLpzUxXqPjIfvzUIvdbhaltrr70D7351w4zWDQ2b9HcvMX+5i0ONm/R2rzF4eYtjjZvcbx5i6WdfVMeW5jfK96Y5fOg39ni86Df9OLzoN/p5fOg3wTm86DfH+bzoN865vOg31Xm2/+2MM8b29jHt7CRN7awkzfKbeW5X95YLK2af7sjgwXdG2wWdGewWdB9wWZBp1VsFnRaxWZBp1VsFnRaxWZBp1VsFis+uebzoD/64/Og0yo+Dzqt4vOg0yo+Dzqt4vOg0yo+Dzqt4vOg0yo+Dzqt4tv/tjDPV3zEz+exhY18RVrF51FuK8/9jqxiadX8S7QYLOjeYLOgO4PNgu4LNgs6rWKzoNMqNgs6rWKzoNMqNgs6rWKzWJFW8XnQyy2fB51W8XnQaRWfB51W8XnQaRWfB51W8XnQaRWfB51W8XnQaRXf/reFeb4ireLz2MJGviKt4vMot5XnfhVJsbRq/l0lDBZ0b7BZ0J3BZkH3BZsFnVaxWdBpFZsFnVaxWdBpFZsFnVaxWaxIq/g86OWWz4NOq/g86LSKz4NOq/g86LSKz4NOq/g86LSKz4NOq/g86LSKb//bwjxfkVbxeWxhI1+RVvF5lNvKcyu+F0ur5iXhGSzo3mCzoDuDzYLuCzYLOq1is6DTKjYLOq1is6DTKjYLOq1is1iRVvF50MstnwedVvF50GkVnwedVvF50GkVnwedVvF50GkVnwedVvF50GkV3/63hXm+Iq3i89jCRr4ireLzKLeV5xbWLZZWzSvvMljQvcFmQXcGmwXdF2wWdFrFZkGnVWwWdFrFZkGnVWwWdFrFZrEireLzoJdbPg86reLzoNMqPg86reLzoNMqPg86reLzoNMqPg86reLzoNMqvv1vC/N8RVrF57GFjXxFWsXnUW4rz61fWCytmhc4ZLCge4PNgu4MNgu6L9gs6LSKzYJOq9gs6LSKzYJOq9gs6LSKzWJlsTUuD3q55fNYVciKy2NVjSsuj1Xlr7g8VtV84/JYVQ6Oy2NVpTguj1VF5Lg8VtWX49r/tjDPV1al4/LYwka+Iq3i88jfyr8WqfCalW4Wp8KXd4sCsmnd2Ep0O6ymFWBzS8Uu6j9HMn4ZTH0nqhzUq8KyDqqiqX5rHBQrN3ufYDyWtXacth3LYRDOzu7daF4/+fH+CxSZTgQuQkeGn6aqnHHhCxXHbJnjvbSjaSjnGKoic9buGy7wjTDCCCOMMMIII4wwwggjjDDCCCOMMMIII4wwwggjjDDCCCOMMMIII4wwwggjjDDCCCOMMMIII4wwwggjjDDCCCOMMMIII4zwfyo8M4NbGYauI9/b6sFay6yv+byqejQ2Wn40titDV0bZ47VGdfEA8cQLYtNzfZn7iGz0ved085+sjcz0q+cngWfHbuAnUEYUy0mtJwdBKI1iTz6/k0PpO8s3NH+t0qpXRVM9uVxXDzKrH4YnB7ECy5FeyJpXQxl3/Fi1T2IxmPr9lLSyK/7KkVgQyserL3Of5VaHOxCVeORGZpT2SjEjdTy5yEzar2P3R5W/gXXVFvjq0fGEPdO9mgSRqwRfJS8XuZvFoWS+QxUGd3pICyzXd6SaDzWrqnn14rgue+HAlZ4ab5WsTefzZBgG04l0xE8/iR+y1+/Nq5EdZc+/qwm2+zQ6+240aRDTHg7PlYfpSX8Yj8QL0RC/CePM8wxxsnxG5Ll9WalZu5f1r7u58+2bOwlCUblObqX+i7hObLKhmvmq135OVhz9DlKHGsaZ3uX1V/NGzsTp6em88coppqpZt1/r3uri6IXSvilz8YPmNbrnq/bK7u5UDWs1GLKRkhZyMK/sKHKHvnTaqkREdJm25NdyTbno6Mk0GlXK9kXSpSfz/iw/kzzvpMhdmurMsi5RHAY3spjP/NyyTsHE7rvxrJhVdnLpu0otFlZlVRYLyfKyUmZ6aC8+6lhM5+WFR9SEpaumM92Ksz5U01210PkPeTmFOvb2xMcvn8UfF18+ie7Fp89vP7wW7y5ev22LN51PnWIC58mqLe9tlaKJOBBREMbCn46TcdAXaUmTSNhRP0leXH9YQHHR9krnyc5sV0Wv+OISynga+mJih5E89wI7rthqyd9NuvLJa730tUKNmZ+iPbHNbiFP+GGzlV4e8890uqeTvbLjyIE99WIxCYNkDZM7VbHz49FRu93p7Gy48AxwgAMc4AAHOMABDnCAAxzg/DdxRDQdJ/8EFo5ULwrHnimiUDqgAQ1oQAMa0IAGNKABDWhAA5rVNHfpn2b9g6bnTSVwgAMc4AAHOMABDnCAAxzgAKcMzuP3BlrqewO7U+p7A5tW+gnb2dn+/vExSEEKUpCCFKQgBSlIQQpSkIIUpCB9HqSNlNSOKdJ6StpsNhpHLZCCFKQgBSlIQQpSkIIUpCAFKUhB+jxIm4r0PHQJ0sZxSmpZh4fNJkhBClKQghSkIAUpSEEKUpCCFKQgfR6k+4r082hKkR6lpMfJcfASpCAFKUhBClKQghSkIAUpSEEKUpA+D9IDRfq7dCjSw5T01at2+/AQpCAFKUhBClKQghSkIAUpSEEKUpA+D9JW+s7EVFKkrZS03W61QApSkIIUpCAFKUhBClKQghSkIAXpcyE9VKTvA6qyYOMgJT06ajQODkAKUpCCFKQgBSlIQQpSkIIUpCAF6dZIFyhOaN9VcsXuzdiNPdkd2RNpxvI+ruy8CaZhlI8x+/bKV+5Y+pEb+J6MUoUcib09ceY4whapkrhz45GIgrEUTjPnyuh2aNqTifSdiqG8jd2cCxaHacdxWDHujapo1TUvmiUXNYpfFMUzT87xarbfHwVhcr3hyYEGbaYxCPy4difd4ShWGr3Ac4przPumO6l130dxEMpD0Z1FtaY498KaJbr9Ua0t3nz0+uO45gdh0gV/fhAfOu2X6rRYjkVTfOz+KS76fXXuzu6qTn2xF/VDdxL/Sp7zYs9xb78fJq+hxRIt4TqnRl+N+HbSSLbry/CqZRkibblTw3GjiWfPTlzfS0K1nhf0b34xaL5EdH4LIp5NkutV4+1d27f2/NWVV6rj1g7V4BSnwnHHE0+avrzr3g4rxo/fMlbFfr2e/sidbErWsWM70b38y/DsnvSME8ORA3vqxWISBgPXk0Z1Hrm6N04ss141bm1vKrPf+2pNSq5Jlpl2u9MxHqqFdBpMOk0mnX0mnQMmnRaTziGTzhGTzjGTjlXnEuIa0RbXkLa4xrTFNagtrlFtcQ1ri2tcW1wD2+Ia2Q2ukd1gW6u5RnaDa2Q3tEa2iKbj8dKXVBfa0ULpaMiQbaQnQ7aQngzZPnoy5LzXkyFnvZ4MOef1ZMgZrydDznc9GXoj09RhGsf0NqapwzSS6U1MU4dpLNNbmKYO02imNzBNHabxTG9fmjpc6zLTeKb3Lk2d4uP5zvVj/W2rp14qrkM2j6YO2TyaOmTzaOqQ011Th5zumjrkdNfUIae7pg453TV16P1LV4hrRNM7mK4Q15im9zBdIa5RTe9iukJc45rex3SFuEY2vZPpCrGt1Vwjm97MdIWKj+zHTy1yv1WY2ubqS//Qm3/tMINFY/MWzc1b7G/e4mDzFq3NWxxu3uJo8xbHm7dY2tk35bGF+b3ijVk+D/qdLT4P+k0vPg/6nV4+D/pNYD4P+v1hPg/6rWM+D/pdZb79bwvzvLGNfXwLG3ljCzt5o9xWnvvljcXSqvm3OzJY0L3BZkF3BpsF3RdsFnRaxWZBp1VsFnRaxWZBp1VsFnRaxWax4pNrPg/6oz8+Dzqt4vOg0yo+Dzqt4vOg0yo+Dzqt4vOg0yo+Dzqt4vOg0yq+/W8L83zFR/x8HlvYyFekVXwe5bby3O/IKpZWzb9Ei8GC7g02C7oz2CzovmCzoNMqNgs6rWKzoNMqNgs6rWKzoNMqNosVaRWfB73c8nnQaRWfB51W8XnQaRWfB51W8XnQaRWfB51W8XnQaRWfB51W8e1/W5jnK9IqPo8tbOQr0io+j3Jbee5XkRRLq+bfVcJgQfcGmwXdGWwWdF+wWdBpFZsFnVaxWdBpFZsFnVaxWdBpFZvFirSKz4Nebvk86LSKz4NOq/g86LSKz4NOq/g86LSKz4NOq/g86LSKz4NOq/j2vy3M8xVpFZ/HFjbyFWkVn0e5rTy34nuxtGpeEp7Bgu4NNgu6M9gs6L5gs6DTKjYLOq1is6DTKjYLOq1is6DTKjaLFWkVnwe93PJ50GkVnwedVvF50GkVnwedVvF50GkVnwedVvF50GkVnwedVvHtf1uY5yvSKj6PLWzkK9IqPo9yW3luYd1iadW88i6DBd0bbBZ0Z7BZ0H3BZkGnVWwWdFrFZkGnVWwWdFrFZkGnVWwWK9IqPg96ueXzoNMqPg86reLzoNMqPg86reLzoNMqPg86reLzoNMqPg86reLb/7Ywz1ekVXweW9jIV6RVfB7ltvLc+oXF0qp5gUMGC7o32CzozmCzoPuCzYJOq9gs6LSKzYJOq9gs6LSKzYJOq9gsVhZb4/Kgl1s+j1WFrLg8VtW44vJYVf6Ky2NVzTcuj1Xl4Lg8VlWK4/JYVUSOy2NVfTmu/W8L83xlVToujy1s5CvSKj6P/K38a5EKr1npZnEqfHm3KCCb1o2tRLfDaloBNrdU7KL+cyTjl8HUd6LKQb0qLOugKprqt8ZBsXKz9wnGY1lrx2nbsRwG4ezs3o3m9ZMf779AkelE4CJ0ZPhpqsoZF75QccyWOd5LO5qGco6hKjJn7b7hAt8II4wwwggjjDDCCCOMMMIII4wwwggjjDDCCCOMMMIII4wwwggjjDDCCCOMMMIII4wwwggjjDDCCCOMMMIII4wwwggjjDDCCP+nwjMzuJVh6Dryva0erLXM+prPq6pHY6PlR2O7MnRllD1ea1QXDxBPvCA2PdeXuY/IRt97Tjf/ydrITL96fhJ4duwGfgJlRLGc1HpyEITSKPbk8zs5lL6zfEPz1yqtelU01ZPLdfUgs/pheHIQK7Ac6YWseTWUccePVfskFoOp309JK7virxyJBaF8vPoy91ludbgDUYlHbmRGaa8UM1LHk4vMpP06dn9U+RtYV22Brx4dT9gz3atJELlK8FXycpG7WRxK5jtUYXCnh7TAcn1HqvlQs6qaVy+O67IXDlzpqfFWydp0Pk+GYTCdSEf89JP4IXv93rwa2VH2/LuaYLtPo7PvRpMGMe3h8Fx5mJ70h/FIvBAN8ZswzjzPECfLZ0Se25eVmrV7Wf+6mzvfvrmTIBSV6+RW6r+I68QmG6qZr3rt52TF0e8gdahhnOldXn81b+RMnJ6ezhuvnGKqmnX7te6tLo5eKO2bMhc/aF6je75qr+zuTtWwVoMhGylpIQfzyo4id+hLp61KRESXaUt+LdeUi46eTKNRpWxfJF16Mu/P8jPJ806K3KWpzizrEsVhcCOL+czPLesUTOy+G8+KWWUnl76r1GJhVVZlsZAsLytlpof24qOOxXReXnhETVi6ajrTrTjrQzXdVQud/5CXU6hjb098/PJZ/HHx5ZPoXnz6/PbDa/Hu4vXbtnjT+dQpJnCerNry3lYpmogDEQVhLPzpOBkHfZGWNImEHfWT5MX1hwUUF22vdJ7szHZV9IovLqGMp6EvJnYYyXMvsOOKrZb83aQrn7zWS18r1Jj5KdoT2+wW8oQfNlvp5TH/TKd7OtkrO44c2FMvFpMwSNYwuVMVOz8eHbXbnc7OhgvPAAc4wAEOcIADHOAABzjAAc5/E0dE03HyT2DhSPWicOyZIgqlAxrQgAY0oAENaEADGtCABjSgWU1zl/5p1j9oet5UAgc4wAEOcIADHOAABzjAAQ5wyuA8fm+gpb43sDulvjewaaWfsJ2d7e8fH4MUpCAFKUhBClKQghSkIAUpSEEK0udB2khJ7ZgiraekzWajcdQCKUhBClKQghSkIAUpSEEKUpCCFKTPg7SpSM9DlyBtHKeklnV42GyCFKQgBSlIQQpSkIIUpCAFKUhBCtLnQbqvSD+PphTpUUp6nBwHL0EKUpCCFKQgBSlIQQpSkIIUpCAF6fMgPVCkv0uHIj1MSV+9arcPD0EKUpCCFKQgBSlIQQpSkIIUpCAF6fMgbaXvTEwlRdpKSdvtVgukIAUpSEEKUpCCFKQgBSlIQQpSkD4X0kNF+j6gKgs2DlLSo6NG4+AApCAFKUhBClKQghSkIAUpSEEKUpBujXSB4oT2XSVX7N6M3diT3ZE9kWYs7+PKzptgGkb5GLNvr3zljqUfuYHvyShVyJHY2xNnjiNskSqJOzceiSgYS+E0c66MboemPZlI36kYytvYzblgcZh2HIcV496oilZd86JZclGj+EVRPPPkHK9m+/1RECbXG54caNBmGoPAj2t30h2OYqXRCzynuMa8b7qTWvd9FAehPBLdWVRrinMvrFmi2x/V2uLNR68/jmvSjmLx5wfxodN+qc6K5Vg0xcfun+Ki31en7uyu6tMXe1E/dCfxr+Q5L/Yc9/b7YfIaWizREq5zavTVgG8nbWS7vgyvWg1DpA13ajhuNPHs2Ynre0mo1vOC/s0vBs2XiM5vQcSzSXK9aru9a/vWnr+68kp13NqhGpviVDjueOJJ05d33dthxfjxW8aq2K/X0x+5c03JOnZsJ7qXfxme3ZOecWI4cmBPvVhMwmDgetKoziNX98aJZdarxq3tTaVx0jo2j58cR8dVo68WqEQhWXPa7U7HeKgWUm1sRLW5EdX9jagebES1tRHVw42oHm1E9XgjqlZ9M7KbmV3WZqaXtZn5ZW1mglmbmWHWZqaYtZk5Zm1mklmbmWWNzcyyxob2sM3MssZmZlljjVkmoul4vPSd3yUyhFA6GqIF21ZPtGDL6okWbFc90YJrl55owZVLT7TguqUnWnDV0hMtuGbpiRZNDDRVNzKniqYFmqobmVVFkwJN1Y3Mq6IpgabqRmZW0YRAU3Ujc6toOqCpupn9aiNzq2guoKladm7duX68bhrQUycUVy3YrJqqBZtVU7Vgs2qqFlyyNFULLlmaqgWXLE3VgkuWpmrBJUtTtWg+oCu7mdlVNCPQld3M/CqaE+jKbmaGFc0KdGU3M8eK5gW6spuZZUUzA13ZDe1hm5llRZMDXVmtWfa1yAcO2QeJ4lT48m7xeUb6MUYluh1W0w8kcj+5WHwaGcn4ZTD1nahyUK8Kyzqoiqb6rXFQ7NOP+wTj8UNWx2nbsRwG4ezs3o3mn+Y9NkWBjzwTgYvQkeGnqfpwrfCFimO2zPFe2tE0lHMM9flg1gXrfoibfo60bNWVoSujDDdxyjpk4gWxqT7cyrWMvnff+aSRmY67SeDZsRv4CZQRxXJS68lBEEqj2Eh6J4fSd5ZvaP5apZWMgqYaCerDMEv9yD4jzf34eCFrXg1l3PFj1T6JxWDq91PSyq74q8CHpIpQPl59mTs31OEORCUeuVEyrtV1xYzU8eQiM2m/jt0fVf4G1lVb4GefDWa6V5MgcpXgq+TlInezOJTMd6jC4E4PaYHl+o5UE7dmVTWvXhzXZS8cuNJT462Stel8ngzDYDqRjvjpJ/FD9vq9eTWyo2w9URNs92l09t1o0iCmPRyeKw/Tk/4wHokXoiF+E8aZ5xniZPmMyHP7slKzdi/rX3dz59s3dxKEonKd3Er9F3Gd2GRDNfNVr/18Kiz9DlKHGsaZ3uX1V/NGJsvb6em88coppqpZt1/r3uri6IXSvilz8YPmNbrnq/bK7u5UDWs1GLKRkm6M5tX8D4Ckk/4JUHSZtuTXck256OjJNBpVyvZF0qUn8/4sP5M876TIXZrqzLIuURwGN7KYz/zcsk7BxO678ayYVXZy6btKLRZWZVUWC8nyslJmemgvPupYTOflhUfUhKWrpjPdirM+VNNdtdD5D3k5hTr29sTHL5/FHxdfPonuxafPbz+8Fu8uXr9tizedT51iAufJqi3vbZWiiTgQUZAk0v50nIyDvkhTxEjYUT9JXlx/WEBx0fZK58nObFdFr/jiEsp4GvpiYoeRPPcCO67YasnfTbryyWu99LVCjZmfoj2xzW4hT/jhX/hDzX98AJv9Nab6QPVf+btR4AAHOMABDnCAAxzgAAc4wHn2ON/+gYsiCqUDGtCABjSgAQ1oQAMa0IAGNKBZTfPNnwQqGvUnfsABDnCAAxzgAAc4wAEOcIADnH+xPOJnOZ7I0I6noRSV810USPyfKpD4u61G3BuZ/uds3HOlHwvVZaruoXSmSfvXxGH9/HmUQGw+gxKIza2VQEwfPC1bgolJp8mks8+kc8Ck02LSOWTSOWLSOWbSWaotsJYQ14i2uIa0xTWmLa5BbXGNaotrWFtc49riGtgW18hucI3sBttazTWyG1wju6E1souX7FuSKl+kbw0ZsoXKF+JbQ4ac9+WL7a0hQ8758gX11pAh5/saRfPW0WEax/Q2tkYpvHV0mIYyvYetUeBuHR2m0UxvYGuUrVtnHWQaz/TutUYxunV0mMYzvXWVLzG3JLNGUbl1dMjmWaNw3Do65HRfozjcOjrkdF+jANw6OuR0X6fI21pCXCOa3sHWKd22lhDXoKY3sXUKsq0lxDWu6X1snTJra62MXCOb3srWKZ62lhDXyKZ3M5REexYl0RBGGGGEEUYYYYQRRhhhhBFGGGGEEf5fCs/M4FaGoevI97Z6o8oy6yiJ/+ROUBL/8UBJfK0DJfFREl/jQEn8fx4oif/PAyXxNQ+UxEdJ/O8eKIkPHOAABzjAAQ5wgAMc4AAHOMB5DgUlQQMa0IAGNKABDWhAAxrQgOb50Px/U8gSOMABDnCAAxzgAAc4wAEOcMr7/Qsl8V+5Y+lHbuB7MopQEP9/qyB+EN6IzmDg9l3p92ePZfC3WwA/O/sfkaf/v/h9/t9H9eyXx//0Amem/juKx96v/+//AHTjqvI="
               },
               {
                  "name" : "annual_peak_electric_demand",
                  "units" : "kW",
                  "value" : 80.669539999999998
               },
               {
                  "name" : "first_year_capital_cost",
                  "units" : "$",
                  "value" : 0
               },
               {
                  "name" : "annual_utility_cost",
                  "units" : "$",
                  "value" : 0
               },
               {
                  "name" : "total_lifecycle_cost",
                  "units" : "$",
                  "value" : 0
               }
            ],
            "step_warnings" : []
         }
      }
   ],
   "updated_at" : "20170710T183844Z",
   "weather_file" : "USA_CO_Denver.Intl.AP.725650_TMY3.epw"
}
