{
   "completed_at" : "20170710T192905Z",
   "completed_status" : "Success",
   "created_at" : "2017-07-10 19:27:12 +0000",
   "current_step" : 5,
   "description" : "",
   "eplusout_err" : "Program Version,EnergyPlus, Version 8.7.0-78a111df4a, YMD=2017.07.10 19:28,IDD_Version 8.7.0\n   ************* IDF Context for following error/warning message:\n   ************* Note -- lines truncated at 300 characters, if necessary...\n   *************      5 Building,\n   ************* indicated Name=NECB 2011-SmallOffice-NECB HDD Method-CAN_PE_Charlottetown.717060_CWEC.epw created: 2017-07-10 19:27:18 +0000\n   ************* Only last 1 lines before error line shown.....\n   *************      6   NECB 2011-SmallOffice-NECB HDD Method-CAN_PE_Charlottetown.717060_CWEC.epw created: 2017-07-10 19:27:18 +0000, !- Name\n   ** Warning ** IP: IDF line~6 Alpha Argument length exceeds maximum, will be truncated=  NECB 2011-SmallOffice-NECB HDD Method-CAN_PE_Charlottetown.717060_CWEC.epw created: 2017-07-10 19:27:18 +000\n   **   ~~~   ** Will be processed as Alpha=NECB 2011-SMALLOFFICE-NECB HDD METHOD-CAN_PE_CHARLOTTETOWN.717060_CWEC.EPW CREATED: 2017-07-10 19:27:18 +0000\n   ************* Beginning Zone Sizing Calculations\n   ** Warning ** ProcessScheduleInput: Schedule:Day:Interval=\"ECONOMIZER MAX OA FRACTION 100 PCT DEFAULT\", Blank Schedule Type Limits Name input -- will not be validated.\n   ** Warning ** ProcessScheduleInput: Schedule:Day:Interval=\"SCHEDULE DAY 1\", Blank Schedule Type Limits Name input -- will not be validated.\n   ** Warning ** ProcessScheduleInput: Schedule:Day:Interval=\"SCHEDULE DAY 10\", Blank Schedule Type Limits Name input -- will not be validated.\n   ** Warning ** ProcessScheduleInput: Schedule:Day:Interval=\"SCHEDULE DAY 11\", Blank Schedule Type Limits Name input -- will not be validated.\n   ** Warning ** ProcessScheduleInput: Schedule:Day:Interval=\"SCHEDULE DAY 12\", Blank Schedule Type Limits Name input -- will not be validated.\n   ** Warning ** ProcessScheduleInput: Schedule:Day:Interval=\"SCHEDULE DAY 13\", Blank Schedule Type Limits Name input -- will not be validated.\n   ** Warning ** ProcessScheduleInput: Schedule:Day:Interval=\"SCHEDULE DAY 14\", Blank Schedule Type Limits Name input -- will not be validated.\n   ** Warning ** ProcessScheduleInput: Schedule:Day:Interval=\"SCHEDULE DAY 15\", Blank Schedule Type Limits Name input -- will not be validated.\n   ** Warning ** ProcessScheduleInput: Schedule:Day:Interval=\"SCHEDULE DAY 16\", Blank Schedule Type Limits Name input -- will not be validated.\n   ** Warning ** ProcessScheduleInput: Schedule:Day:Interval=\"SCHEDULE DAY 17\", Blank Schedule Type Limits Name input -- will not be validated.\n   ** Warning ** ProcessScheduleInput: Schedule:Day:Interval=\"SCHEDULE DAY 18\", Blank Schedule Type Limits Name input -- will not be validated.\n   ** Warning ** ProcessScheduleInput: Schedule:Day:Interval=\"SCHEDULE DAY 19\", Blank Schedule Type Limits Name input -- will not be validated.\n   ** Warning ** ProcessScheduleInput: Schedule:Day:Interval=\"SCHEDULE DAY 2\", Blank Schedule Type Limits Name input -- will not be validated.\n   ** Warning ** ProcessScheduleInput: Schedule:Day:Interval=\"SCHEDULE DAY 5\", Blank Schedule Type Limits Name input -- will not be validated.\n   ** Warning ** ProcessScheduleInput: Schedule:Day:Interval=\"SCHEDULE DAY 6\", Blank Schedule Type Limits Name input -- will not be validated.\n   ** Warning ** ProcessScheduleInput: Schedule:Day:Interval=\"SCHEDULE DAY 7\", Blank Schedule Type Limits Name input -- will not be validated.\n   ** Warning ** ProcessScheduleInput: Schedule:Day:Interval=\"SCHEDULE DAY 8\", Blank Schedule Type Limits Name input -- will not be validated.\n   ** Warning ** ProcessScheduleInput: Schedule:Day:Interval=\"SCHEDULE DAY 9\", Blank Schedule Type Limits Name input -- will not be validated.\n   ** Warning ** ProcessScheduleInput: Schedule:Year=\"ECONOMIZER MAX OA FRACTION 100 PCT\", Blank Schedule Type Limits Name input -- will not be validated.\n   ** Warning ** ProcessScheduleInput: Schedule:Year=\"SCHEDULE RULESET 10\", Blank Schedule Type Limits Name input -- will not be validated.\n   ** Warning ** ProcessScheduleInput: Schedule:Year=\"SCHEDULE RULESET 11\", Blank Schedule Type Limits Name input -- will not be validated.\n   ** Warning ** ProcessScheduleInput: Schedule:Year=\"SCHEDULE RULESET 12\", Blank Schedule Type Limits Name input -- will not be validated.\n   ** Warning ** ProcessScheduleInput: Schedule:Year=\"SCHEDULE RULESET 13\", Blank Schedule Type Limits Name input -- will not be validated.\n   ** Warning ** ProcessScheduleInput: Schedule:Year=\"SCHEDULE RULESET 14\", Blank Schedule Type Limits Name input -- will not be validated.\n   ** Warning ** ProcessScheduleInput: Schedule:Year=\"SCHEDULE RULESET 15\", Blank Schedule Type Limits Name input -- will not be validated.\n   ** Warning ** ProcessScheduleInput: Schedule:Year=\"SCHEDULE RULESET 16\", Blank Schedule Type Limits Name input -- will not be validated.\n   ** Warning ** ProcessScheduleInput: Schedule:Year=\"SCHEDULE RULESET 17\", Blank Schedule Type Limits Name input -- will not be validated.\n   ** Warning ** ProcessScheduleInput: Schedule:Year=\"SCHEDULE RULESET 3\", Blank Schedule Type Limits Name input -- will not be validated.\n   ** Warning ** ProcessScheduleInput: Schedule:Year=\"SCHEDULE RULESET 4\", Blank Schedule Type Limits Name input -- will not be validated.\n   ** Warning ** ProcessScheduleInput: Schedule:Year=\"SCHEDULE RULESET 5\", Blank Schedule Type Limits Name input -- will not be validated.\n   ** Warning ** ProcessScheduleInput: Schedule:Year=\"SCHEDULE RULESET 6\", Blank Schedule Type Limits Name input -- will not be validated.\n   ** Warning ** ProcessScheduleInput: Schedule:Year=\"SCHEDULE RULESET 7\", Blank Schedule Type Limits Name input -- will not be validated.\n   ** Warning ** ProcessScheduleInput: Schedule:Year=\"SCHEDULE RULESET 8\", Blank Schedule Type Limits Name input -- will not be validated.\n   ** Warning ** ProcessScheduleInput: Schedule:Year=\"SCHEDULE RULESET 9\", Blank Schedule Type Limits Name input -- will not be validated.\n   ** Warning ** ProcessScheduleInput: Schedule:Constant=\"ALWAYS OFF DISCRETE\", Blank Schedule Type Limits Name input -- will not be validated.\n   ** Warning ** ProcessScheduleInput: Schedule:Constant=\"ALWAYS ON CONTINUOUS\", Blank Schedule Type Limits Name input -- will not be validated.\n   ** Warning ** CheckUsedConstructions: There are 22 nominally unused constructions in input.\n   **   ~~~   ** For explicit details on each unused construction, use Output:Diagnostics,DisplayExtraWarnings;\n   ************* Beginning System Sizing Calculations\n   ************* Beginning Plant Sizing Calculations\n   ** Warning ** GetDXCoils: Coil:Cooling:DX:SingleSpeed=\"COIL COOLING DX SINGLE SPEED 5 15KBTU/HR 14.0SEER\", invalid\n   **   ~~~   ** ...Part Load Fraction Correlation Curve Name = DXCOOL-NECB2011-REF-COOLPLFFPLR 4 has out of range value.\n   **   ~~~   ** ...Curve maximum must be <= 1.0, curve max at PLR = 0.99 is 1.015\n   **   ~~~   ** ...Setting curve maximum to 1.0 and simulation continues.\n   ** Warning ** GetDXCoils: Coil:Cooling:DX:SingleSpeed=\"COIL COOLING DX SINGLE SPEED 4 15KBTU/HR 14.0SEER\", invalid\n   **   ~~~   ** ...Part Load Fraction Correlation Curve Name = DXCOOL-NECB2011-REF-COOLPLFFPLR 3 has out of range value.\n   **   ~~~   ** ...Curve maximum must be <= 1.0, curve max at PLR = 0.99 is 1.015\n   **   ~~~   ** ...Setting curve maximum to 1.0 and simulation continues.\n   ** Warning ** GetDXCoils: Coil:Cooling:DX:SingleSpeed=\"COIL COOLING DX SINGLE SPEED 2 16KBTU/HR 14.0SEER\", invalid\n   **   ~~~   ** ...Part Load Fraction Correlation Curve Name = DXCOOL-NECB2011-REF-COOLPLFFPLR 1 has out of range value.\n   **   ~~~   ** ...Curve maximum must be <= 1.0, curve max at PLR = 0.99 is 1.015\n   **   ~~~   ** ...Setting curve maximum to 1.0 and simulation continues.\n   ** Warning ** GetDXCoils: Coil:Cooling:DX:SingleSpeed=\"COIL COOLING DX SINGLE SPEED 1 14KBTU/HR 14.0SEER\", invalid\n   **   ~~~   ** ...Part Load Fraction Correlation Curve Name = DXCOOL-NECB2011-REF-COOLPLFFPLR has out of range value.\n   **   ~~~   ** ...Curve maximum must be <= 1.0, curve max at PLR = 0.99 is 1.015\n   **   ~~~   ** ...Setting curve maximum to 1.0 and simulation continues.\n   ** Warning ** GetDXCoils: Coil:Cooling:DX:SingleSpeed=\"COIL COOLING DX SINGLE SPEED 3 17KBTU/HR 14.0SEER\", invalid\n   **   ~~~   ** ...Part Load Fraction Correlation Curve Name = DXCOOL-NECB2011-REF-COOLPLFFPLR 2 has out of range value.\n   **   ~~~   ** ...Curve maximum must be <= 1.0, curve max at PLR = 0.99 is 1.015\n   **   ~~~   ** ...Setting curve maximum to 1.0 and simulation continues.\n   ** Warning ** The Standard Ratings is calculated for Coil:Cooling:DX:SingleSpeed = COIL COOLING DX SINGLE SPEED 5 15KBTU/HR 14.0SEER but not at the AHRI test condition due to curve out of bound.\n   **   ~~~   **  Review the Standard Ratings calculations in the Engineering Reference for this coil type. Also, use Output:Diagnostics, DisplayExtraWarnings for further guidance.\n   ** Warning ** The Standard Ratings is calculated for Coil:Cooling:DX:SingleSpeed = COIL COOLING DX SINGLE SPEED 4 15KBTU/HR 14.0SEER but not at the AHRI test condition due to curve out of bound.\n   **   ~~~   **  Review the Standard Ratings calculations in the Engineering Reference for this coil type. Also, use Output:Diagnostics, DisplayExtraWarnings for further guidance.\n   ** Warning ** The Standard Ratings is calculated for Coil:Cooling:DX:SingleSpeed = COIL COOLING DX SINGLE SPEED 2 16KBTU/HR 14.0SEER but not at the AHRI test condition due to curve out of bound.\n   **   ~~~   **  Review the Standard Ratings calculations in the Engineering Reference for this coil type. Also, use Output:Diagnostics, DisplayExtraWarnings for further guidance.\n   ** Warning ** The Standard Ratings is calculated for Coil:Cooling:DX:SingleSpeed = COIL COOLING DX SINGLE SPEED 1 14KBTU/HR 14.0SEER but not at the AHRI test condition due to curve out of bound.\n   **   ~~~   **  Review the Standard Ratings calculations in the Engineering Reference for this coil type. Also, use Output:Diagnostics, DisplayExtraWarnings for further guidance.\n   ** Warning ** The Standard Ratings is calculated for Coil:Cooling:DX:SingleSpeed = COIL COOLING DX SINGLE SPEED 3 17KBTU/HR 14.0SEER but not at the AHRI test condition due to curve out of bound.\n   **   ~~~   **  Review the Standard Ratings calculations in the Engineering Reference for this coil type. Also, use Output:Diagnostics, DisplayExtraWarnings for further guidance.\n   ** Warning ** Check input. Pump nominal power or motor efficiency is set to 0, for pump=SERVICE WATER LOOP PUMP\n   ** Warning ** Output:Meter: invalid Name=\"GAS:FACILITY\" - not found.\n   ** Warning ** Output:Meter: invalid Name=\"DISTRICTCOOLING:FACILITY\" - not found.\n   ** Warning ** Output:Meter: invalid Name=\"DISTRICTHEATING:FACILITY\" - not found.\n   ** Warning ** Output:Meter:MeterFileOnly: invalid Name=\"GAS:FACILITY\" - not found.\n   ** Warning ** Output:Meter:MeterFileOnly: invalid Name=\"GAS:FACILITY\" - not found.\n   ** Warning ** Output:Meter:MeterFileOnly requested for \"Electricity:Facility\" (TimeStep), already on \"Output:Meter\". Will report to both eplusout.eso and eplusout.mtr\n   ************* Testing Individual Branch Integrity\n   ************* All Branches passed integrity testing\n   ************* Testing Individual Supply Air Path Integrity\n   ************* All Supply Air Paths passed integrity testing\n   ************* Testing Individual Return Air Path Integrity\n   ************* All Return Air Paths passed integrity testing\n   ************* No node connection errors were found.\n   ************* Beginning Simulation\n   ** Warning ** GetInputEconomicsTariff: UtilityCost:Tariff=\"NONEGAS\" missing meter\n   **   ~~~   ** Meter referenced is not present due to a lack of equipment that uses that energy source/meter:\"GAS:FACILITY\".\n   ** Warning ** CalcDoe2DXCoil: Coil:Cooling:DX:SingleSpeed \"COIL COOLING DX SINGLE SPEED 4 15KBTU/HR 14.0SEER\" - Air-cooled condenser inlet dry-bulb temperature below 0 C. Outdoor dry-bulb temperature = -13.18\n   **   ~~~   **  ... Occurrence info = RUN PERIOD 1, 01/01 12:00 - 12:15\n   **   ~~~   ** ... Operation at low ambient temperatures may require special performance curves.\n   ** Warning ** CalcDoe2DXCoil: Coil:Cooling:DX:SingleSpeed \"COIL COOLING DX SINGLE SPEED 4 15KBTU/HR 14.0SEER\" - Full load outlet air dry-bulb temperature < 2C. This indicates the possibility of coil frost/freeze. Outlet temperature = -1.06 C.\n   **   ~~~   **  ...Occurrence info = RUN PERIOD 1, 01/01 12:00 - 12:15\n   **   ~~~   ** ... Possible reasons for low outlet air dry-bulb temperatures are: This DX coil\n   **   ~~~   **    1) may have a low inlet air dry-bulb temperature. Inlet air temperature = 12.652 C.\n   **   ~~~   **    2) may have a low air flow rate per watt of cooling capacity. Check inputs.\n   **   ~~~   **    3) is used as part of a HX assisted cooling coil which uses a high sensible effectiveness. Check inputs.\n   ** Warning ** CalcDoe2DXCoil: Coil:Cooling:DX:SingleSpeed \"COIL COOLING DX SINGLE SPEED 2 16KBTU/HR 14.0SEER\" - Air-cooled condenser inlet dry-bulb temperature below 0 C. Outdoor dry-bulb temperature = -5.45\n   **   ~~~   **  ... Occurrence info = RUN PERIOD 1, 01/02 06:03 - 06:05\n   **   ~~~   ** ... Operation at low ambient temperatures may require special performance curves.\n   ** Warning ** CalcDoe2DXCoil: Coil:Cooling:DX:SingleSpeed \"COIL COOLING DX SINGLE SPEED 1 14KBTU/HR 14.0SEER\" - Air-cooled condenser inlet dry-bulb temperature below 0 C. Outdoor dry-bulb temperature = -5.45\n   **   ~~~   **  ... Occurrence info = RUN PERIOD 1, 01/02 06:03 - 06:05\n   **   ~~~   ** ... Operation at low ambient temperatures may require special performance curves.\n   ** Warning ** CalcDoe2DXCoil: Coil:Cooling:DX:SingleSpeed \"COIL COOLING DX SINGLE SPEED 1 14KBTU/HR 14.0SEER\" - Full load outlet air dry-bulb temperature < 2C. This indicates the possibility of coil frost/freeze. Outlet temperature = 0.67 C.\n   **   ~~~   **  ...Occurrence info = RUN PERIOD 1, 01/02 06:03 - 06:05\n   **   ~~~   ** ... Possible reasons for low outlet air dry-bulb temperatures are: This DX coil\n   **   ~~~   **    1) may have a low inlet air dry-bulb temperature. Inlet air temperature = 14.691 C.\n   **   ~~~   **    2) may have a low air flow rate per watt of cooling capacity. Check inputs.\n   **   ~~~   **    3) is used as part of a HX assisted cooling coil which uses a high sensible effectiveness. Check inputs.\n   ** Warning ** CalcDoe2DXCoil: Coil:Cooling:DX:SingleSpeed \"COIL COOLING DX SINGLE SPEED 3 17KBTU/HR 14.0SEER\" - Air-cooled condenser inlet dry-bulb temperature below 0 C. Outdoor dry-bulb temperature = -5.45\n   **   ~~~   **  ... Occurrence info = RUN PERIOD 1, 01/02 06:03 - 06:05\n   **   ~~~   ** ... Operation at low ambient temperatures may require special performance curves.\n   ** Warning ** CalcDoe2DXCoil: Coil:Cooling:DX:SingleSpeed \"COIL COOLING DX SINGLE SPEED 5 15KBTU/HR 14.0SEER\" - Full load outlet air dry-bulb temperature < 2C. This indicates the possibility of coil frost/freeze. Outlet temperature = 1.70 C.\n   **   ~~~   **  ...Occurrence info = RUN PERIOD 1, 01/02 22:00 - 22:08\n   **   ~~~   ** ... Possible reasons for low outlet air dry-bulb temperatures are: This DX coil\n   **   ~~~   **    1) may have a low inlet air dry-bulb temperature. Inlet air temperature = 14.147 C.\n   **   ~~~   **    2) may have a low air flow rate per watt of cooling capacity. Check inputs.\n   **   ~~~   **    3) is used as part of a HX assisted cooling coil which uses a high sensible effectiveness. Check inputs.\n   ** Warning ** CalcDoe2DXCoil: Coil:Cooling:DX:SingleSpeed \"COIL COOLING DX SINGLE SPEED 5 15KBTU/HR 14.0SEER\" - Air-cooled condenser inlet dry-bulb temperature below 0 C. Outdoor dry-bulb temperature = -1.10\n   **   ~~~   **  ... Occurrence info = RUN PERIOD 1, 01/03 21:15 - 21:18\n   **   ~~~   ** ... Operation at low ambient temperatures may require special performance curves.\n   ************* Simulation Error Summary *************\n   ************* There are 9 unused schedules in input.\n   ************* There are 9 unused week schedules in input.\n   ************* There are 12 unused day schedules in input.\n   ************* Use Output:Diagnostics,DisplayUnusedSchedules; to see them.\n   *************\n   ************* ===== Recurring Error Summary =====\n   ************* The following recurring error messages occurred.\n   *************\n   *************  ** Warning ** Plant loop exceeding upper temperature limit, PlantLoop=\"MAIN SERVICE WATER LOOP\"\n   *************  **   ~~~   **   This error occurred 41639 total times;\n   *************  **   ~~~   **   during Warmup 1298 times;\n   *************  **   ~~~   **   during Sizing 0 times.\n   *************  **   ~~~   **   Max=82.222222\n   *************\n   *************  ** Warning ** CalcDoe2DXCoil: Coil:Cooling:DX:SingleSpeed=\"COIL COOLING DX SINGLE SPEED 4 15KBTU/HR 14.0SEER\" - Low condenser dry-bulb temperature error continues...\n   *************  **   ~~~   **   This error occurred 830 total times;\n   *************  **   ~~~   **   during Warmup 0 times;\n   *************  **   ~~~   **   during Sizing 0 times.\n   *************  **   ~~~   **   Max=-5.000000E-002 [C]  Min=-21.7 [C]\n   *************\n   *************  ** Warning ** CalcDoe2DXCoil: Coil:Cooling:DX:SingleSpeed=\"COIL COOLING DX SINGLE SPEED 4 15KBTU/HR 14.0SEER\" - Full load outlet temperature indicates a possibility of frost/freeze error continues. Outlet air temperature statistics follow:\n   *************  **   ~~~   **   This error occurred 324 total times;\n   *************  **   ~~~   **   during Warmup 0 times;\n   *************  **   ~~~   **   during Sizing 0 times.\n   *************  **   ~~~   **   Max=1.995583  Min=-1.560182\n   *************\n   *************  ** Warning ** CalcDoe2DXCoil: Coil:Cooling:DX:SingleSpeed=\"COIL COOLING DX SINGLE SPEED 2 16KBTU/HR 14.0SEER\" - Low condenser dry-bulb temperature error continues...\n   *************  **   ~~~   **   This error occurred 489 total times;\n   *************  **   ~~~   **   during Warmup 0 times;\n   *************  **   ~~~   **   during Sizing 0 times.\n   *************  **   ~~~   **   Max=-5.000000E-002 [C]  Min=-21.95 [C]\n   *************\n   *************  ** Warning ** CalcDoe2DXCoil: Coil:Cooling:DX:SingleSpeed=\"COIL COOLING DX SINGLE SPEED 1 14KBTU/HR 14.0SEER\" - Low condenser dry-bulb temperature error continues...\n   *************  **   ~~~   **   This error occurred 364 total times;\n   *************  **   ~~~   **   during Warmup 0 times;\n   *************  **   ~~~   **   during Sizing 0 times.\n   *************  **   ~~~   **   Max=-5.000000E-002 [C]  Min=-18.325 [C]\n   *************\n   *************  ** Warning ** CalcDoe2DXCoil: Coil:Cooling:DX:SingleSpeed=\"COIL COOLING DX SINGLE SPEED 1 14KBTU/HR 14.0SEER\" - Full load outlet temperature indicates a possibility of frost/freeze error continues. Outlet air temperature statistics follow:\n   *************  **   ~~~   **   This error occurred 295 total times;\n   *************  **   ~~~   **   during Warmup 0 times;\n   *************  **   ~~~   **   during Sizing 0 times.\n   *************  **   ~~~   **   Max=1.99875  Min=-2.014224\n   *************\n   *************  ** Warning ** CalcDoe2DXCoil: Coil:Cooling:DX:SingleSpeed=\"COIL COOLING DX SINGLE SPEED 3 17KBTU/HR 14.0SEER\" - Low condenser dry-bulb temperature error continues...\n   *************  **   ~~~   **   This error occurred 576 total times;\n   *************  **   ~~~   **   during Warmup 0 times;\n   *************  **   ~~~   **   during Sizing 0 times.\n   *************  **   ~~~   **   Max=-5.000000E-002 [C]  Min=-21.95 [C]\n   *************\n   *************  ** Warning ** CalcDoe2DXCoil: Coil:Cooling:DX:SingleSpeed=\"COIL COOLING DX SINGLE SPEED 5 15KBTU/HR 14.0SEER\" - Full load outlet temperature indicates a possibility of frost/freeze error continues. Outlet air temperature statistics follow:\n   *************  **   ~~~   **   This error occurred 433 total times;\n   *************  **   ~~~   **   during Warmup 0 times;\n   *************  **   ~~~   **   during Sizing 0 times.\n   *************  **   ~~~   **   Max=1.978223  Min=-2.525812\n   *************\n   *************  ** Warning ** CalcDoe2DXCoil: Coil:Cooling:DX:SingleSpeed=\"COIL COOLING DX SINGLE SPEED 5 15KBTU/HR 14.0SEER\" - Low condenser dry-bulb temperature error continues...\n   *************  **   ~~~   **   This error occurred 380 total times;\n   *************  **   ~~~   **   during Warmup 0 times;\n   *************  **   ~~~   **   during Sizing 0 times.\n   *************  **   ~~~   **   Max=-5.000000E-002 [C]  Min=-13.3 [C]\n   *************\n   *************\n   ************* ===== Final Error Summary =====\n   ************* The following error categories occurred.  Consider correcting or noting.\n   ************* Nominally Unused Constructions\n   ************* ..The nominally unused constructions warning is provided to alert you to potential conditions that can cause\n   ************* ..extra time during simulation. Each construction is calculated by the algorithm indicated in the HeatBalanceAlgorithm\n   ************* ..object. You may remove the constructions indicated (when you use the DisplayExtraWarnings option).\n   *************\n   ************* EnergyPlus Warmup Error Summary. During Warmup: 0 Warning; 0 Severe Errors.\n   ************* EnergyPlus Sizing Error Summary. During Sizing: 37 Warning; 0 Severe Errors.\n   ************* EnergyPlus Completed Successfully-- 45386 Warning; 0 Severe Errors; Elapsed Time=00hr 00min 28.95sec\n",
   "file_format_version" : "0.0.1",
   "file_paths" : [ "../weather", "../seeds", "../seed" ],
   "hash" : "2BF9012D",
   "measure_paths" : [ "../measures" ],
   "name" : "LHS Autogenerated 998",
   "osa_id" : "4fef0e0f-5396-4c55-a6e1-2cd6803db3ab",
   "osd_id" : "e70c161b-fc20-4a6f-8deb-5499283626d4",
   "run_directory" : "./run",
   "seed_file" : "seed.osm",
   "started_at" : "20170710T192715Z",
   "steps" : [
      {
         "arguments" : {
            "__SKIP__" : false,
            "building_type" : "SmallOffice",
            "climate_zone" : "NECB HDD Method",
            "epw_file" : "CAN_PE_Charlottetown.717060_CWEC.epw",
            "template" : "NECB 2011"
         },
         "measure_dir_name" : "create_prototype_building",
         "name" : "create_prototype_building",
         "result" : {
            "completed_at" : "20170710T192805Z",
            "measure_class_name" : "CreatePrototypeBuilding",
            "measure_display_name" : "Create Prototype Building",
            "measure_name" : "create_prototype_building",
            "measure_taxonomy" : "Whole Building.Space Types",
            "measure_type" : "ModelMeasure",
            "measure_uid" : "ae90fsd7-a651-467a-bc8d-29d310b0f937",
            "measure_version_id" : "c6ec5c18-5595-459f-a082-09a19c8c869c",
            "measure_version_modified" : "20170519T182315Z",
            "measure_xml_checksum" : "057E8D9D",
            "started_at" : "20170710T192718Z",
            "stderr" : "",
            "stdout" : "[OpenStudio.Measure] <0> OSArgumentVector is deprecated, use OpenStudio::Measure::OSArgumentVector instead.\n[openstudio.EpwFile] <0> Successive data points (1972-Jan-31 to 1977-Feb-01, ending on line 753) are greater than 1 day apart in EPW file '/usr/local/bundle/bundler/gems/openstudio-standards-f448df66933d/openstudio-standards/data/weather/CAN_PE_Charlottetown.717060_CWEC.epw'. Data will be treated as typical (TMY)\n[openstudio.setFileExtension] <0> Path p, '/usr/local/bundle/bundler/gems/openstudio-standards-f448df66933d/openstudio-standards/data/weather/CAN_PE_Charlottetown.717060_CWEC.ddy', has an unexpected file extension. Was expecting 'idf'.\n[openstudio.model.YearDescription] <1> 'UseWeatherFile' is not yet a supported option for YearDescription\n[openstudio.model.YearDescription] <1> 'UseWeatherFile' is not yet a supported option for YearDescription\n[openstudio.setFileExtension] <0> Path p, '/usr/local/bundle/bundler/gems/openstudio-standards-f448df66933d/openstudio-standards/data/weather/CAN_PE_Charlottetown.717060_CWEC.ddy', has an unexpected file extension. Was expecting 'idf'.\n[openstudio.model.YearDescription] <1> 'UseWeatherFile' is not yet a supported option for YearDescription\n[openstudio.model.YearDescription] <1> 'UseWeatherFile' is not yet a supported option for YearDescription\n[openstudio.EpwFile] <0> Successive data points (1972-Jan-31 to 1977-Feb-01, ending on line 753) are greater than 1 day apart in EPW file '/usr/local/bundle/bundler/gems/openstudio-standards-f448df66933d/openstudio-standards/data/weather/CAN_PE_Charlottetown.717060_CWEC.epw'. Data will be treated as typical (TMY)\n[openstudio.weather.Model] <0> Could not find ground temperatures; will use generic temperatures, which will skew results.\n[openstudio.setFileExtension] <0> Path p, '/usr/local/bundle/bundler/gems/openstudio-standards-f448df66933d/openstudio-standards/data/weather/CAN_PE_Charlottetown.717060_CWEC.ddy', has an unexpected file extension. Was expecting 'idf'.\n[openstudio.model.YearDescription] <1> 'UseWeatherFile' is not yet a supported option for YearDescription\n[openstudio.model.YearDescription] <1> 'UseWeatherFile' is not yet a supported option for YearDescription\n[openstudio.EpwFile] <0> Successive data points (1972-Jan-31 to 1977-Feb-01, ending on line 753) are greater than 1 day apart in EPW file '/usr/local/bundle/bundler/gems/openstudio-standards-f448df66933d/openstudio-standards/data/weather/CAN_PE_Charlottetown.717060_CWEC.epw'. Data will be treated as typical (TMY)\n[openstudio.setFileExtension] <0> Path p, '/usr/local/bundle/bundler/gems/openstudio-standards-f448df66933d/openstudio-standards/data/weather/CAN_PE_Charlottetown.717060_CWEC.ddy', has an unexpected file extension. Was expecting 'idf'.\n[openstudio.model.YearDescription] <1> 'UseWeatherFile' is not yet a supported option for YearDescription\n[openstudio.model.YearDescription] <1> 'UseWeatherFile' is not yet a supported option for YearDescription\n[openstudio.setFileExtension] <0> Path p, '/usr/local/bundle/bundler/gems/openstudio-standards-f448df66933d/openstudio-standards/data/weather/CAN_PE_Charlottetown.717060_CWEC.ddy', has an unexpected file extension. Was expecting 'idf'.\n[openstudio.model.YearDescription] <1> 'UseWeatherFile' is not yet a supported option for YearDescription\n[openstudio.model.YearDescription] <1> 'UseWeatherFile' is not yet a supported option for YearDescription\n[openstudio.EpwFile] <0> Successive data points (1972-Jan-31 to 1977-Feb-01, ending on line 753) are greater than 1 day apart in EPW file '/usr/local/bundle/bundler/gems/openstudio-standards-f448df66933d/openstudio-standards/data/weather/CAN_PE_Charlottetown.717060_CWEC.epw'. Data will be treated as typical (TMY)\n[openstudio.setFileExtension] <0> Path p, '/usr/local/bundle/bundler/gems/openstudio-standards-f448df66933d/openstudio-standards/data/weather/CAN_PE_Charlottetown.717060_CWEC.ddy', has an unexpected file extension. Was expecting 'idf'.\n[openstudio.model.YearDescription] <1> 'UseWeatherFile' is not yet a supported option for YearDescription\n[openstudio.model.YearDescription] <1> 'UseWeatherFile' is not yet a supported option for YearDescription\n[openstudio.setFileExtension] <0> Path p, '/usr/local/bundle/bundler/gems/openstudio-standards-f448df66933d/openstudio-standards/data/weather/CAN_PE_Charlottetown.717060_CWEC.ddy', has an unexpected file extension. Was expecting 'idf'.\n[openstudio.model.YearDescription] <1> 'UseWeatherFile' is not yet a supported option for YearDescription\n[openstudio.model.YearDescription] <1> 'UseWeatherFile' is not yet a supported option for YearDescription\n[utilities.idf.WorkspaceObject] <0> Object of type 'Schedule:Constant' and named 'Always Off Discrete', points to an object named OnOff 1 from field 1, but that object cannot be located.\n[utilities.idf.WorkspaceObject] <0> Object of type 'Schedule:Constant' and named 'Always On Continuous', points to an object named Fractional 1 from field 1, but that object cannot be located.\n[utilities.idf.WorkspaceObject] <0> Object of type 'Schedule:Constant' and named 'Always Off Discrete', points to an object named OnOff 1 from field 1, but that object cannot be located.\n[utilities.idf.WorkspaceObject] <0> Object of type 'Schedule:Constant' and named 'Always On Continuous', points to an object named Fractional 1 from field 1, but that object cannot be located.\n[openstudio.standards.Fan] <0> For Fan Constant Volume 1, there is no greater nominal HP.  Use the efficiency of the largest motor category.\n[openstudio.standards.Fan] <0> For Fan Constant Volume 2, there is no greater nominal HP.  Use the efficiency of the largest motor category.\n[openstudio.standards.Fan] <0> For Fan Constant Volume 3, there is no greater nominal HP.  Use the efficiency of the largest motor category.\n[openstudio.standards.Fan] <0> For Fan Constant Volume 4, there is no greater nominal HP.  Use the efficiency of the largest motor category.\n[openstudio.standards.Fan] <0> For Fan Constant Volume 5, there is no greater nominal HP.  Use the efficiency of the largest motor category.\n[openstudio.EpwFile] <0> Successive data points (1972-Jan-31 to 1977-Feb-01, ending on line 753) are greater than 1 day apart in EPW file '/usr/local/bundle/bundler/gems/openstudio-standards-f448df66933d/openstudio-standards/data/weather/CAN_PE_Charlottetown.717060_CWEC.epw'. Data will be treated as typical (TMY)\n[openstudio.setFileExtension] <0> Path p, '/usr/local/bundle/bundler/gems/openstudio-standards-f448df66933d/openstudio-standards/data/weather/CAN_PE_Charlottetown.717060_CWEC.ddy', has an unexpected file extension. Was expecting 'idf'.\n[openstudio.model.YearDescription] <1> 'UseWeatherFile' is not yet a supported option for YearDescription\n[openstudio.model.YearDescription] <1> 'UseWeatherFile' is not yet a supported option for YearDescription\n[openstudio.setFileExtension] <0> Path p, '/usr/local/bundle/bundler/gems/openstudio-standards-f448df66933d/openstudio-standards/data/weather/CAN_PE_Charlottetown.717060_CWEC.ddy', has an unexpected file extension. Was expecting 'idf'.\n[openstudio.model.YearDescription] <1> 'UseWeatherFile' is not yet a supported option for YearDescription\n[openstudio.model.YearDescription] <1> 'UseWeatherFile' is not yet a supported option for YearDescription\n[openstudio.EpwFile] <0> Successive data points (1972-Jan-31 to 1977-Feb-01, ending on line 753) are greater than 1 day apart in EPW file '/usr/local/bundle/bundler/gems/openstudio-standards-f448df66933d/openstudio-standards/data/weather/CAN_PE_Charlottetown.717060_CWEC.epw'. Data will be treated as typical (TMY)\n[openstudio.setFileExtension] <0> Path p, '/usr/local/bundle/bundler/gems/openstudio-standards-f448df66933d/openstudio-standards/data/weather/CAN_PE_Charlottetown.717060_CWEC.ddy', has an unexpected file extension. Was expecting 'idf'.\n[openstudio.model.YearDescription] <1> 'UseWeatherFile' is not yet a supported option for YearDescription\n[openstudio.model.YearDescription] <1> 'UseWeatherFile' is not yet a supported option for YearDescription\n[openstudio.setFileExtension] <0> Path p, '/usr/local/bundle/bundler/gems/openstudio-standards-f448df66933d/openstudio-standards/data/weather/CAN_PE_Charlottetown.717060_CWEC.ddy', has an unexpected file extension. Was expecting 'idf'.\n[openstudio.model.YearDescription] <1> 'UseWeatherFile' is not yet a supported option for YearDescription\n[openstudio.model.YearDescription] <1> 'UseWeatherFile' is not yet a supported option for YearDescription\n[openstudio.EpwFile] <0> Successive data points (1972-Jan-31 to 1977-Feb-01, ending on line 753) are greater than 1 day apart in EPW file '/usr/local/bundle/bundler/gems/openstudio-standards-f448df66933d/openstudio-standards/data/weather/CAN_PE_Charlottetown.717060_CWEC.epw'. Data will be treated as typical (TMY)\n[openstudio.setFileExtension] <0> Path p, '/usr/local/bundle/bundler/gems/openstudio-standards-f448df66933d/openstudio-standards/data/weather/CAN_PE_Charlottetown.717060_CWEC.ddy', has an unexpected file extension. Was expecting 'idf'.\n[openstudio.model.YearDescription] <1> 'UseWeatherFile' is not yet a supported option for YearDescription\n[openstudio.model.YearDescription] <1> 'UseWeatherFile' is not yet a supported option for YearDescription\n[openstudio.setFileExtension] <0> Path p, '/usr/local/bundle/bundler/gems/openstudio-standards-f448df66933d/openstudio-standards/data/weather/CAN_PE_Charlottetown.717060_CWEC.ddy', has an unexpected file extension. Was expecting 'idf'.\n[openstudio.model.YearDescription] <1> 'UseWeatherFile' is not yet a supported option for YearDescription\n[openstudio.model.YearDescription] <1> 'UseWeatherFile' is not yet a supported option for YearDescription\n[openstudio.EpwFile] <0> Successive data points (1972-Jan-31 to 1977-Feb-01, ending on line 753) are greater than 1 day apart in EPW file '/usr/local/bundle/bundler/gems/openstudio-standards-f448df66933d/openstudio-standards/data/weather/CAN_PE_Charlottetown.717060_CWEC.epw'. Data will be treated as typical (TMY)\n[openstudio.setFileExtension] <0> Path p, '/usr/local/bundle/bundler/gems/openstudio-standards-f448df66933d/openstudio-standards/data/weather/CAN_PE_Charlottetown.717060_CWEC.ddy', has an unexpected file extension. Was expecting 'idf'.\n[openstudio.model.YearDescription] <1> 'UseWeatherFile' is not yet a supported option for YearDescription\n[openstudio.model.YearDescription] <1> 'UseWeatherFile' is not yet a supported option for YearDescription\n[openstudio.setFileExtension] <0> Path p, '/usr/local/bundle/bundler/gems/openstudio-standards-f448df66933d/openstudio-standards/data/weather/CAN_PE_Charlottetown.717060_CWEC.ddy', has an unexpected file extension. Was expecting 'idf'.\n[openstudio.model.YearDescription] <1> 'UseWeatherFile' is not yet a supported option for YearDescription\n[openstudio.model.YearDescription] <1> 'UseWeatherFile' is not yet a supported option for YearDescription\n[openstudio.EpwFile] <0> Successive data points (1972-Jan-31 to 1977-Feb-01, ending on line 753) are greater than 1 day apart in EPW file '/usr/local/bundle/bundler/gems/openstudio-standards-f448df66933d/openstudio-standards/data/weather/CAN_PE_Charlottetown.717060_CWEC.epw'. Data will be treated as typical (TMY)\n[openstudio.setFileExtension] <0> Path p, '/usr/local/bundle/bundler/gems/openstudio-standards-f448df66933d/openstudio-standards/data/weather/CAN_PE_Charlottetown.717060_CWEC.ddy', has an unexpected file extension. Was expecting 'idf'.\n[openstudio.model.YearDescription] <1> 'UseWeatherFile' is not yet a supported option for YearDescription\n[openstudio.model.YearDescription] <1> 'UseWeatherFile' is not yet a supported option for YearDescription\n[openstudio.setFileExtension] <0> Path p, '/usr/local/bundle/bundler/gems/openstudio-standards-f448df66933d/openstudio-standards/data/weather/CAN_PE_Charlottetown.717060_CWEC.ddy', has an unexpected file extension. Was expecting 'idf'.\n[openstudio.model.YearDescription] <1> 'UseWeatherFile' is not yet a supported option for YearDescription\n[openstudio.model.YearDescription] <1> 'UseWeatherFile' is not yet a supported option for YearDescription\n[openstudio.standards.Fan] <0> For Fan Constant Volume 1, there is no greater nominal HP.  Use the efficiency of the largest motor category.\n[openstudio.standards.Fan] <0> For Fan Constant Volume 2, there is no greater nominal HP.  Use the efficiency of the largest motor category.\n[openstudio.standards.Fan] <0> For Fan Constant Volume 3, there is no greater nominal HP.  Use the efficiency of the largest motor category.\n[openstudio.standards.Fan] <0> For Fan Constant Volume 4, there is no greater nominal HP.  Use the efficiency of the largest motor category.\n[openstudio.standards.Fan] <0> For Fan Constant Volume 5, there is no greater nominal HP.  Use the efficiency of the largest motor category.\n",
            "step_errors" : [],
            "step_files" : [],
            "step_info" : [
               "Started adding geometry",
               "Finished adding geometry",
               "Started adding weather file for climate zone: NECB HDD Method.",
               "Template =",
               "Setting Attic to Space Function.- undefined -",
               "Setting Core_ZN to Space Function.Office - enclosed",
               "Setting Perimeter_ZN_1 to Space Function.Office - enclosed",
               "Setting Perimeter_ZN_2 to Space Function.Office - enclosed",
               "Setting Perimeter_ZN_3 to Space Function.Office - enclosed",
               "Setting Perimeter_ZN_4 to Space Function.Office - enclosed",
               "Started applying space types (loads)",
               "Space Function - undefined - had no ventilation specification, one has been created.",
               "Space Function - undefined - had no infiltration objects, one has been created.",
               "Space Function - undefined - set infiltration to 0.0 per ft^2 exterior surface area.",
               "Space Function - undefined - set infiltration schedule to Always On.",
               "Space Function Office - enclosed had no people, one has been created.",
               "Space Function Office - enclosed set occupancy to 4.65 people/1000 ft^2.",
               "Space Function Office - enclosed had no lights, one has been created.",
               "Space Function Office - enclosed set LPD to 1.105536975 W/ft^2.",
               "Space Function Office - enclosed had no electric equipment, one has been created.",
               "Space Function Office - enclosed set electric EPD to 0.696767001 W/ft^2.",
               "Space Function Office - enclosed had no ventilation specification, one has been created.",
               "Space Function Office - enclosed set ventilation per area to 0.085 cfm/ft^2.",
               "Space Function Office - enclosed had no infiltration objects, one has been created.",
               "Space Function Office - enclosed set infiltration to 0.0 per ft^2 exterior surface area.",
               "Space Function Office - enclosed set occupancy schedule to NECB-A-Occupancy.",
               "Space Function Office - enclosed set occupant activity schedule to NECB-Activity.",
               "Space Function Office - enclosed set lighting schedule to NECB-A-Lighting.",
               "Space Function Office - enclosed set electric equipment schedule to NECB-A-Electric-Equipment.",
               "Space Function Office - enclosed set infiltration schedule to Always On.",
               "Space Function Office - enclosed set heating setpoint schedule to NECB-A-Thermostat Setpoint-Heating.",
               "Space Function Office - enclosed set cooling setpoint schedule to NECB-A-Thermostat Setpoint-Cooling.",
               "Finished applying space types (loads)",
               "For NECB 2011, no exterior wall area was found, no infiltration will be added.",
               "Started applying constructions",
               "Adding construction set: NECB 2011-NECB HDD Method-Office--is_residentialNo",
               "Adding construction Typical Insulated Exterior Mass Floor R-15.63.",
               "Adding construction Typical Insulated Exterior Mass Wall R-12.5.",
               "Adding construction Typical Insulated Metal Building Roof R-20.41.",
               "Adding construction Typical Interior Floor.",
               "Adding construction Typical Interior Wall.",
               "Adding construction Typical Interior Ceiling.",
               "Adding construction Typical Insulated Carpeted 6in Slab Floor.",
               "Adding construction U 0.55 SHGC 0.31 Dbl Ref-D Tint 6mm/6mm Air.",
               "Adding construction Typical Insulated Metal Door R-1.43.",
               "Adding construction U 0.35 SHGC 0.35 Dbl LoE (e2-.1) Tint 6mm/13mm Air.",
               "Adding construction Typical Overhead Door R-2.0.",
               "Adding construction U 0.48 SHGC 0.40 Dbl Ref-D Clr 6mm/13mm.",
               "Adding construction Typical Interior Window.",
               "Adding construction Typical Interior Door.",
               "Adding construction Typical Interior Partition.",
               "Finished applying constructions",
               "WWR NonRes = 0%; window = 0 ft2, wall = 0 ft2.",
               "WWR Res = 0%; window = 0 ft2, wall = 0 ft2.",
               "WWR Semiheated = 0%; window = 0 ft2, wall = 0 ft2.",
               "The skylight to roof ratios (SRRs) are: NonRes: 0%, Res: 0%.",
               "Started creating thermal zones",
               "Finished creating thermal zones",
               "Running simulation /mnt/openstudio/analysis_4fef0e0f-5396-4c55-a6e1-2cd6803db3ab/data_point_e70c161b-fc20-4a6f-8deb-5499283626d4/run/000_create_prototype_building/output/SmallOffice-NECB 2011-NECB HDD Method-CAN_PE_Charlottetown.717060_CWEC.epw/SR0.",
               "Finished run.",
               "Started Adding HVAC",
               "Finished adding HVAC",
               "Started Adding Service Water Heating",
               "Adding service water loop.",
               "Adding water heater.",
               "Template =",
               "Finished adding Service Water Heating",
               "Set sizing factors to 1.3 for heating and 1.3 for cooling.",
               "Running simulation /mnt/openstudio/analysis_4fef0e0f-5396-4c55-a6e1-2cd6803db3ab/data_point_e70c161b-fc20-4a6f-8deb-5499283626d4/run/000_create_prototype_building/output/SmallOffice-NECB 2011-NECB HDD Method-CAN_PE_Charlottetown.717060_CWEC.epw/SR1.",
               "Finished run.",
               "Started applying multizone vav OA sizing.",
               "Finished applying multizone vav OA sizing.",
               "Started applying prototype HVAC assumptions.",
               "For Fan Constant Volume 1: allowed_hp = 1.01HP; motor eff = 61.5%; total fan eff = 40% based on 506 cfm.",
               "For Fan Constant Volume 2: allowed_hp = 1.01HP; motor eff = 61.5%; total fan eff = 40% based on 583 cfm.",
               "For Fan Constant Volume 3: allowed_hp = 1.01HP; motor eff = 61.5%; total fan eff = 40% based on 654 cfm.",
               "For Fan Constant Volume 4: allowed_hp = 1.01HP; motor eff = 61.5%; total fan eff = 40% based on 578 cfm.",
               "For Fan Constant Volume 5: allowed_hp = 1.01HP; motor eff = 61.5%; total fan eff = 40% based on 553 cfm.",
               "Sp-Core_ZN Sys-3 Flr-1 Sch-A HPlcmt-core ZN NECB System 3 PSZ does not require an economizer because the total cooling capacity of 15491 Btu/hr is less than the minimum capacity of 68243 Btu/hr.",
               "Sp-Perimeter_ZN_1 Sys-3 Flr-1 Sch-A HPlcmt-south ZN NECB System 3 PSZ does not require an economizer because the total cooling capacity of 15413 Btu/hr is less than the minimum capacity of 68243 Btu/hr.",
               "Sp-Perimeter_ZN_4 Sys-3 Flr-1 Sch-A HPlcmt-west ZN NECB System 3 PSZ does not require an economizer because the total cooling capacity of 17421 Btu/hr is less than the minimum capacity of 68243 Btu/hr.",
               "Sp-Perimeter_ZN_3 Sys-3 Flr-1 Sch-A HPlcmt-north ZN NECB System 3 PSZ does not require an economizer because the total cooling capacity of 13827 Btu/hr is less than the minimum capacity of 68243 Btu/hr.",
               "Sp-Perimeter_ZN_2 Sys-3 Flr-1 Sch-A HPlcmt-east ZN NECB System 3 PSZ does not require an economizer because the total cooling capacity of 15542 Btu/hr is less than the minimum capacity of 68243 Btu/hr.",
               "Finished applying prototype HVAC assumptions.",
               "Started applying HVAC efficiency standards.",
               "For Sp-Core_ZN Sys-3 Flr-1 Sch-A HPlcmt-core ZN NECB System 3 PSZ, ERV not required based on 0% OA flow, design supply air flow of 553cfm, and climate zone NECB HDD Method.",
               "For Sp-Core_ZN Sys-3 Flr-1 Sch-A HPlcmt-core ZN NECB System 3 PSZ, ERV not required based on exhaust heat content.",
               "For NECB 2011 NECB HDD Method:  Sp-Core_ZN Sys-3 Flr-1 Sch-A HPlcmt-core ZN NECB System 3 PSZ: DCV is not required for any system.",
               "For Sp-Core_ZN Sys-3 Flr-1 Sch-A HPlcmt-core ZN NECB System 3 PSZ: Unoccupied fan shutoff not required because system fan HP of 0.56 HP is less than the minimum threshold of 0.75 HP.",
               "For Sp-Core_ZN Sys-3 Flr-1 Sch-A HPlcmt-core ZN NECB System 3 PSZ: Setting motorized OA damper schedule to Always On Discrete.",
               "For Sp-Perimeter_ZN_1 Sys-3 Flr-1 Sch-A HPlcmt-south ZN NECB System 3 PSZ, ERV not required based on 0% OA flow, design supply air flow of 578cfm, and climate zone NECB HDD Method.",
               "For Sp-Perimeter_ZN_1 Sys-3 Flr-1 Sch-A HPlcmt-south ZN NECB System 3 PSZ, ERV not required based on exhaust heat content.",
               "For NECB 2011 NECB HDD Method:  Sp-Perimeter_ZN_1 Sys-3 Flr-1 Sch-A HPlcmt-south ZN NECB System 3 PSZ: DCV is not required for any system.",
               "For Sp-Perimeter_ZN_1 Sys-3 Flr-1 Sch-A HPlcmt-south ZN NECB System 3 PSZ: Unoccupied fan shutoff not required because system fan HP of 0.59 HP is less than the minimum threshold of 0.75 HP.",
               "For Sp-Perimeter_ZN_1 Sys-3 Flr-1 Sch-A HPlcmt-south ZN NECB System 3 PSZ: Setting motorized OA damper schedule to Always On Discrete.",
               "For Sp-Perimeter_ZN_2 Sys-3 Flr-1 Sch-A HPlcmt-east ZN NECB System 3 PSZ, ERV not required based on 0% OA flow, design supply air flow of 583cfm, and climate zone NECB HDD Method.",
               "For Sp-Perimeter_ZN_2 Sys-3 Flr-1 Sch-A HPlcmt-east ZN NECB System 3 PSZ, ERV not required based on exhaust heat content.",
               "For NECB 2011 NECB HDD Method:  Sp-Perimeter_ZN_2 Sys-3 Flr-1 Sch-A HPlcmt-east ZN NECB System 3 PSZ: DCV is not required for any system.",
               "For Sp-Perimeter_ZN_2 Sys-3 Flr-1 Sch-A HPlcmt-east ZN NECB System 3 PSZ: Unoccupied fan shutoff not required because system fan HP of 0.59 HP is less than the minimum threshold of 0.75 HP.",
               "For Sp-Perimeter_ZN_2 Sys-3 Flr-1 Sch-A HPlcmt-east ZN NECB System 3 PSZ: Setting motorized OA damper schedule to Always On Discrete.",
               "For Sp-Perimeter_ZN_3 Sys-3 Flr-1 Sch-A HPlcmt-north ZN NECB System 3 PSZ, ERV not required based on 0% OA flow, design supply air flow of 506cfm, and climate zone NECB HDD Method.",
               "For Sp-Perimeter_ZN_3 Sys-3 Flr-1 Sch-A HPlcmt-north ZN NECB System 3 PSZ, ERV not required based on exhaust heat content.",
               "For NECB 2011 NECB HDD Method:  Sp-Perimeter_ZN_3 Sys-3 Flr-1 Sch-A HPlcmt-north ZN NECB System 3 PSZ: DCV is not required for any system.",
               "For Sp-Perimeter_ZN_3 Sys-3 Flr-1 Sch-A HPlcmt-north ZN NECB System 3 PSZ: Unoccupied fan shutoff not required because system fan HP of 0.51 HP is less than the minimum threshold of 0.75 HP.",
               "For Sp-Perimeter_ZN_3 Sys-3 Flr-1 Sch-A HPlcmt-north ZN NECB System 3 PSZ: Setting motorized OA damper schedule to Always On Discrete.",
               "For Sp-Perimeter_ZN_4 Sys-3 Flr-1 Sch-A HPlcmt-west ZN NECB System 3 PSZ, ERV not required based on 0% OA flow, design supply air flow of 654cfm, and climate zone NECB HDD Method.",
               "For Sp-Perimeter_ZN_4 Sys-3 Flr-1 Sch-A HPlcmt-west ZN NECB System 3 PSZ, ERV not required based on exhaust heat content.",
               "For NECB 2011 NECB HDD Method:  Sp-Perimeter_ZN_4 Sys-3 Flr-1 Sch-A HPlcmt-west ZN NECB System 3 PSZ: DCV is not required for any system.",
               "For Sp-Perimeter_ZN_4 Sys-3 Flr-1 Sch-A HPlcmt-west ZN NECB System 3 PSZ: Unoccupied fan shutoff not required because system fan HP of 0.66 HP is less than the minimum threshold of 0.75 HP.",
               "For Sp-Perimeter_ZN_4 Sys-3 Flr-1 Sch-A HPlcmt-west ZN NECB System 3 PSZ: Setting motorized OA damper schedule to Always On Discrete.",
               "For Fan Constant Volume 1: motor nameplate = 0.31502130094863495HP, motor eff = 61.5%.",
               "For Fan Constant Volume 2: motor nameplate = 0.3631655511396415HP, motor eff = 61.5%.",
               "For Fan Constant Volume 3: motor nameplate = 0.4070913773908537HP, motor eff = 61.5%.",
               "For Fan Constant Volume 4: motor nameplate = 0.35975803012521HP, motor eff = 61.5%.",
               "For Fan Constant Volume 5: motor nameplate = 0.3441939404512241HP, motor eff = 61.5%.",
               "For Service Water Loop Pump: brake hp = 0.0HP, motor nameplate = 0.1HP, motor eff = 70.0%.",
               "For NECB 2011: Coil Cooling DX Single Speed 1: AirCooled Electric Resistance or None Single Package Capacity = 14kBtu/hr; SEER = 14.0",
               "For NECB 2011: Coil Cooling DX Single Speed 2: AirCooled Electric Resistance or None Single Package Capacity = 16kBtu/hr; SEER = 14.0",
               "For NECB 2011: Coil Cooling DX Single Speed 3: AirCooled Electric Resistance or None Single Package Capacity = 17kBtu/hr; SEER = 14.0",
               "For NECB 2011: Coil Cooling DX Single Speed 4: AirCooled Electric Resistance or None Single Package Capacity = 15kBtu/hr; SEER = 14.0",
               "For NECB 2011: Coil Cooling DX Single Speed 5: AirCooled Electric Resistance or None Single Package Capacity = 15kBtu/hr; SEER = 14.0",
               "For NECB 2011: 40.0gal Electricity Water Heater - 40kBtu/hr 1.0 Therm Eff; thermal efficiency = 1.0, skin-loss UA = 3Btu/hr",
               "Finished applying HVAC efficiency standards.",
               "Started adding daylighting controls.",
               "For Attic, daylighting control not applicable because no exterior fenestration is present.",
               "For Core_ZN, daylighting control not applicable because no exterior fenestration is present.",
               "Finished adding daylighting controls.",
               "Total Time = 47sec."
            ],
            "step_result" : "Success",
            "step_values" : [
               {
                  "name" : "building_type",
                  "value" : "SmallOffice"
               },
               {
                  "name" : "template",
                  "value" : "NECB 2011"
               },
               {
                  "name" : "climate_zone",
                  "value" : "NECB HDD Method"
               },
               {
                  "name" : "epw_file",
                  "value" : "CAN_PE_Charlottetown.717060_CWEC.epw"
               }
            ],
            "step_warnings" : [
               "[openstudio.EpwFile] Successive data points (1972-Jan-31 to 1977-Feb-01, ending on line 753) are greater than 1 day apart in EPW file '/usr/local/bundle/bundler/gems/openstudio-standards-f448df66933d/openstudio-standards/data/weather/CAN_PE_Charlottetown.717060_CWEC.epw'. Data will be treated as typical (TMY)",
               "[openstudio.EpwFile] Successive data points (1972-Jan-31 to 1977-Feb-01, ending on line 753) are greater than 1 day apart in EPW file '/usr/local/bundle/bundler/gems/openstudio-standards-f448df66933d/openstudio-standards/data/weather/CAN_PE_Charlottetown.717060_CWEC.epw'. Data will be treated as typical (TMY)",
               "[openstudio.weather.Model] Could not find ground temperatures; will use generic temperatures, which will skew results.",
               "[openstudio.EpwFile] Successive data points (1972-Jan-31 to 1977-Feb-01, ending on line 753) are greater than 1 day apart in EPW file '/usr/local/bundle/bundler/gems/openstudio-standards-f448df66933d/openstudio-standards/data/weather/CAN_PE_Charlottetown.717060_CWEC.epw'. Data will be treated as typical (TMY)",
               "[openstudio.EpwFile] Successive data points (1972-Jan-31 to 1977-Feb-01, ending on line 753) are greater than 1 day apart in EPW file '/usr/local/bundle/bundler/gems/openstudio-standards-f448df66933d/openstudio-standards/data/weather/CAN_PE_Charlottetown.717060_CWEC.epw'. Data will be treated as typical (TMY)",
               "[openstudio.standards.Fan] For Fan Constant Volume 1, there is no greater nominal HP.  Use the efficiency of the largest motor category.",
               "[openstudio.standards.Fan] For Fan Constant Volume 2, there is no greater nominal HP.  Use the efficiency of the largest motor category.",
               "[openstudio.standards.Fan] For Fan Constant Volume 3, there is no greater nominal HP.  Use the efficiency of the largest motor category.",
               "[openstudio.standards.Fan] For Fan Constant Volume 4, there is no greater nominal HP.  Use the efficiency of the largest motor category.",
               "[openstudio.standards.Fan] For Fan Constant Volume 5, there is no greater nominal HP.  Use the efficiency of the largest motor category.",
               "[openstudio.EpwFile] Successive data points (1972-Jan-31 to 1977-Feb-01, ending on line 753) are greater than 1 day apart in EPW file '/usr/local/bundle/bundler/gems/openstudio-standards-f448df66933d/openstudio-standards/data/weather/CAN_PE_Charlottetown.717060_CWEC.epw'. Data will be treated as typical (TMY)",
               "[openstudio.EpwFile] Successive data points (1972-Jan-31 to 1977-Feb-01, ending on line 753) are greater than 1 day apart in EPW file '/usr/local/bundle/bundler/gems/openstudio-standards-f448df66933d/openstudio-standards/data/weather/CAN_PE_Charlottetown.717060_CWEC.epw'. Data will be treated as typical (TMY)",
               "[openstudio.EpwFile] Successive data points (1972-Jan-31 to 1977-Feb-01, ending on line 753) are greater than 1 day apart in EPW file '/usr/local/bundle/bundler/gems/openstudio-standards-f448df66933d/openstudio-standards/data/weather/CAN_PE_Charlottetown.717060_CWEC.epw'. Data will be treated as typical (TMY)",
               "[openstudio.EpwFile] Successive data points (1972-Jan-31 to 1977-Feb-01, ending on line 753) are greater than 1 day apart in EPW file '/usr/local/bundle/bundler/gems/openstudio-standards-f448df66933d/openstudio-standards/data/weather/CAN_PE_Charlottetown.717060_CWEC.epw'. Data will be treated as typical (TMY)",
               "[openstudio.EpwFile] Successive data points (1972-Jan-31 to 1977-Feb-01, ending on line 753) are greater than 1 day apart in EPW file '/usr/local/bundle/bundler/gems/openstudio-standards-f448df66933d/openstudio-standards/data/weather/CAN_PE_Charlottetown.717060_CWEC.epw'. Data will be treated as typical (TMY)",
               "[openstudio.standards.Fan] For Fan Constant Volume 1, there is no greater nominal HP.  Use the efficiency of the largest motor category.",
               "[openstudio.standards.Fan] For Fan Constant Volume 2, there is no greater nominal HP.  Use the efficiency of the largest motor category.",
               "[openstudio.standards.Fan] For Fan Constant Volume 3, there is no greater nominal HP.  Use the efficiency of the largest motor category.",
               "[openstudio.standards.Fan] For Fan Constant Volume 4, there is no greater nominal HP.  Use the efficiency of the largest motor category.",
               "[openstudio.standards.Fan] For Fan Constant Volume 5, there is no greater nominal HP.  Use the efficiency of the largest motor category."
            ]
         }
      },
      {
         "arguments" : {
            "__SKIP__" : false
         },
         "measure_dir_name" : "view_model",
         "name" : "view_model",
         "result" : {
            "completed_at" : "20170710T192806Z",
            "measure_class_name" : "ViewModel",
            "measure_display_name" : "ViewModel",
            "measure_name" : "view_model",
            "measure_taxonomy" : "Reporting.QAQC",
            "measure_type" : "ModelMeasure",
            "measure_uid" : "f4669f10-fda5-489d-8e1c-7ca3c2d40378",
            "measure_version_id" : "f4975c5f-7c25-42a2-927b-02d99b4427ef",
            "measure_version_modified" : "20170526T150340Z",
            "measure_xml_checksum" : "1E1F8B97",
            "started_at" : "20170710T192805Z",
            "stderr" : "",
            "stdout" : "[OpenStudio.Measure] <0> OSArgumentVector is deprecated, use OpenStudio::Measure::OSArgumentVector instead.\n",
            "step_errors" : [],
            "step_files" : [
               "/mnt/openstudio/analysis_4fef0e0f-5396-4c55-a6e1-2cd6803db3ab/data_point_e70c161b-fc20-4a6f-8deb-5499283626d4/run/001_view_model/report.html",
               "/mnt/openstudio/analysis_4fef0e0f-5396-4c55-a6e1-2cd6803db3ab/data_point_e70c161b-fc20-4a6f-8deb-5499283626d4/run/001_view_model/report.json"
            ],
            "step_final_condition" : "Report written to <a href='file:////mnt/openstudio/analysis_4fef0e0f-5396-4c55-a6e1-2cd6803db3ab/data_point_e70c161b-fc20-4a6f-8deb-5499283626d4/run/001_view_model/report.html'>report.html</a>.",
            "step_info" : [ "No changes made to the model." ],
            "step_result" : "NA",
            "step_values" : [
               {
                  "name" : "view_model_html_zip",
[...]
VY3UdLh6QvPP2vu9jujrJ6+0Y6/Uf5SOzGvNqhey3fORyk6nmb4+eYjL6+mgIG1vib/WSCwI1cPR79Y+i6ZbdCna2ThKu2lxV+wC6bZ0UDe/fqfhYNz+G9hVbYFfGhiXuuezOI204I/5xzZns2ha5gtUSXzrhrTAiqZDpcfDtuw4Hr1oV3UPvIzUROdbu7ym83EySuLrmRqK774T/yg/v+uej8O0fH5PD7Ct5d77L/bmF6QbjkavdIzuRE1H2Vg8F4H4j2i9mExa4nj1G+kkGqj2ttx613u/tXa8PTqTOBHtq/xUet+LqzxMmaplXP3Zv/IZx/0G6abTuNR7d/W++0Hdi5OTk/nFq6dYqJa3/cr1VBftIlHhhzoHf3I8xvX7+nqVZ3ei01onQ5kpxYOo3fP51gNq+FI/4pq+K67k+3qXcnGjZ9fpuF33XuS39Hh+P+uPpMnk2OYsu/qbdaOkWRJ/UHZx5t+tGymehYMou7cLVX659lkVIRah6qosJpLVaaXO8HCefHRbDOfViUdsC+mq5jLc7Fk/dYqqavX9T+vWFLrt7Ig//nwr/vv6zzfi7PWbt7/8/pP49fVPv7wUP5++ObUTeJXP2uou1Es0kcUijZNMTK8/5nkwEMUj2akI00G+eImmIwvFxbXXOkuVOeyIC/vJJVHZdTIVszBJ1atJHGbtUE/5W/mtXPrsovjM6mKuX6IthS1PYZ3wp6+wRcxnPtvF3i9zF+2vsmMNcIADHOAABzjAAQ5wgAMc4Gw8zuN9ITRRooagAQ1oQAMa0IAGNKABDWhAA5pqmkc7E2kave8QcIADHOAABzjAAQ5wgAMc4ACnDo79LmbFv7DN9ygDKUhBClKQghSkIAUpSEEKUpCCFKSbQbp2e82CdL55JkhBClKQghSkIAUpSEEKUpCCFKQg3QxSpz2OC+r5DsagBjWoQQ1qUIMa1KAGNahBDWpQgxrUX5F6gTVMwtv2WrG7bhZlE3U2Dmeqm6m7rP3s5/g6Sddj3D8+8sfoo5qmUTydqLRQWCOxsyNeDIciFIWSuI2ysUjjj0oM+2uOTG9G3XA209uJtHTs1taaAxatG2ZZ0m7dtTpiv+d40H1Lb1pifVCa3etdVzTedjgdjOOk9bDViaPGZTzNtm9VNBpnWuMingztNeb35vfTlz9sv9h+PRhcz3Ka+2dbVXfn+U46SKJZ9m/jd57vDKObL3cbjzGL5VoiGp60Bjp1X+ZnG0ZTlZzL/ZYoLsFJaxils0l4fxxN9d432xeTePDh+5aZLxedn4LI7mf58foq7FyFN+H808ojdSs25LkZiZPFvjtTdXt2M2q3/vmYsSN29TY2+R9rR83S5i3v/ip35DlufWbb1+rMe87vWsey2+u0CgP51nGv29vrtAZ6pskPKo39Wp86VkIBl1CfS2iXS2iPS2ifS+iAS+hwRUjW1jla0anPI3tcQquJfVRfKOAS6nMJ7XIJ7XEJ7XMJrSb2QX2hQ648Ws3sfv35cTWzg/pCkkso4BJim7IDtzn7sXuSXWlL1NBBx1zZ3HTMV8lNx3yN3HTMZc1Nx1zV3HTMRc1Nx1jT3GSMJc1NxlzRHHWMBc1Rx1jPHHWM5cxRx1jNHHWMxcxRx1jLHHWMpcxRx1jJHHWMhcxxNjTWMUcdYxlz1DFWMUcdrum5ooY9EnpkS2FXv7RxhYOQuYA5CpkvkaOQ+RI5CplrmKOQuYg5CpmrmKOQsYw56hjrmKOOuZC5ChkrmauQsZS5ChlrmauQsZi5ChmrmauQsZy5ChnrmauQsaC5Chkrmuv8aCxprkLGmuYqZCxqrkJsU3ZFWXukZP9mpuVPkfN3NxliVPxKyRaj4r+G2WJU/HcyW4yKnz3ZYlT8IsoWo+LHUrYYhw3EOGogxmdF3lOQJka6bGKoyybGumxisMsmRrtsYrjLJsa7bGLAyyZGfNDEiA8aqe1NjPiq37r5gtQc8WtfjLFcbs1fnWGIUXFH2GJU3BC2GBX3gy1GxQTMFqNi/mWLUTH9ssWomH3ZYlRMvmwxqpZbfEGaGOlVyy2+IE2M9arlFl+QJkZ71XKLL0gT471qucUXpIkRX7Xc4gvSSG1vYsRXLbf4gtQc8U7P4FouveZP6TLHq7hTXuJV3DQv8Srun5d4FZO3l3gV87iXeBVTupd45qcQvYQzP6zoJVzFM41+4pkfffQTz/yEpJ945gcp/cQzP2/pJ575sUw/8cxPb/qJZ37I008887OgfuKZHxn1U93NT5b6iWd+ANVPPPNzqn7iNb18qVp/LgK+t3nzo3w3S5yIqbpdvFhSvE/STm9GneLNkLWvkCxe8EpV9kN8PR2m7b1eR0i51xF9/bdgz+41lLsc4+EdtuHwZZipUZzcv7iL0vkLUg8XwOItslzgdTJUyZtr/b6S9YGa436V4zcVpteJmmPoV67KC+/5bT50oxvd6EY3utGNbnSjG93oRje60Y1udKMb3ehGN7rRjW50oxvd6EY3utGNbnSje4O777vxjUqSaKh+C/WDQbLbIz5vUxjorj7ac6aSSKXl40GtzuIBqNkkzrra1XftIz7pl54zWv9kUNotjDNm8STMoniaQ7XSTM22L9RlnKiW3ZNbv6qRmg5XT2j+WXu/1xF9/eSVdgGW+o/S5nmtA/ZCtns+UtnpNNPXJw9xeT0dFKTtLfHXGokFoXo4+t3aZ9F0iy5FOxtHaTct7opdIN2WDurm1+80HIzbfwO7qi3wS1PkUvd8FqeRFvwx/9jmbBZNy3yBKolv3ZAWWNF0qPR42JYdx6MX7arugZeRmuh8a5fXdD5ORkl8PVND8d134h/l53fd83GYls/v6QG2tdx7/8Xe/IJ0w9HolY7RnajpKBuL5yIQ/xGtF5NJSxyvfiOdRAPV3pZb73rvt9aOt0dnEieifZWfSu97cZWHKVO1jKs/+1c+47jfIN10Gpd6767edz+oe3FycjK/ePUUC9Xytl+5nuqiXSQq/FDn4E+Ox7h+X1+v8uxOdFrrZCgzpXgQtXs+389ADV/qR1zTd8WVfF/vUi5u9Ow6Hbfr3ov8lh7P72f9kTSZHNucZVd/s26UNEviD8ouzvy7dSPFs3AQZfd2ocov1z6rIsQiVF2VxUSyOq3UGR7Ok49ui+G8OvGIbSFd1VyGmz3rp05RVa2+/2ndmkK3nR3xx59vxX9f//lGnL1+8/aX338Sv77+6ZeX4ufTN6d2Aq/yWVvdhXqJJrJYpHGSien1xzwPBqJ4JDsVYTrIFy/RdGShuLj2WmepMocdcWE/uSQqu06mYhYmqXo1icOsHeopfyu/lUufXRSfWV3M9Uu0pbDlKawT/vQV9p35zLO72FBmbsj9VbbBAQ5wgAMc4AAHOMABDnCAA5yNx3m8tYQmStQQNKABDWhAAxrQgAY0oAENaEBTTfNoTyNNozcsAg5wgAMc4AAHOMABDnCAAxzg1MGx3+es+Be2+SZmIAUpSEEKUpCCFKQgBSlIQQpSkIJ0M0jXbrRZkM530QQpSEEKUpCCFKQgBSlIQQpSkIIUpJtB6rTJcUE938EY1KAGNahBDWpQgxrUoAY1qEENalCD+itSL7CGSXjbXit2182ibKLOxuFMdTN1l7Wf/RxfJ+l6jPvHR/4YfVTTNIqnE5UWCmskdnbEi+FQhKJQErdRNhZp/FGJYX/NkenNqBvOZno7kZaO3dpac8CidcMsS9qtu1ZH7PccD7pv6U1LrA9Ks3u964rG2w6ng3GctB62OnHUuIyn2fatikbjTGtcxJOhvcb83vx++vKH7RfbZyq5iQZK/E+oX7f5WYVZNB0926q6U8930kESzbJ/G7/zfGcY3Xy523iMWSzXEtHwpDXQafwyP/MwmqrkXB60RHE5TlrDKJ1NwvvjaKr3wdm+mMSDD9+3zHy56PwURHY/y4/XV2TnKrwJ559WHqlbsTnPzUicLPbgmarbs5tRu/XPx4wdsau3tMn/WDuCljZyefdXuTvPceszC79WZ95zftc6lt1ep1WYybeOj3a7R8ut32kN9BSUK5SOf61PHSvVwItq34vqrhfVPS+q+15UD5ZUD/a6kkf10IvqkRdV2fMjK/3IBn5k+35kd/3I7vmR3fcj62eMST+DTPoZZYGfURb4GWWBnyIW+KliAaGMPTakqrFCSNTQQdTy2rqJWl5ZN1HL6+omark6cBO1XBy4iVrOW26ilrOWm6jlnOUmarswcFS1nLEcVS2XBY6qlqsCR1XLRYGjquWawFHVckngqOplZNkuCBxVvYwt2+WAo6qXsWW7GHBU9VKxbJcCj1QfGabUWAZofxUHVcvL6qhqeVkdVS0vq6Oq5VLAUdVyLeCoajllOapaTlmOqpZTlqOq7XrAVdZy0nKVtVwRuMpaLglcZS3XBK6ylosCV1nLVYGrrJ8xZrsucJX1M8psVwausn5Gme3awFXWTxWzXR08krV/9brOvy/M39RmCGj7qw1bQNvfc9gC2v7SwxbQ9t8y2ALa/jMHW8CDpgMeNh3wqOmAKyulZiI2PtfIxicb2fhsIxufbmTj841sfMKRjc84svEpRzY+5wSNzzlB8+ubxucc63+x4ovIMeesfWOwzjJ1/oIhQ0Dbu8gW0PYmsgW0vYdsAW3LBltA26rBFtC2aLAFtK0ZbAFtSwZbQOtlKl/Exuca62UqX8TGZxvrZSpfxMbnG+tlKl/Exmcc62UqX8TG5xzrZSpfxObXN43POdbLVL6IHHOO00sddZas83dAmIPb3l0vwW1vtJfgtvfcS3DbkuMluG318RLc9vlZL8Ftn7L1Etz2WVwvwa0fjPcT3fbJXj/RbR+z9xPd9ml8P9FtH9r3E9322X4/0W1fAfAT/avOdNYvFPiJ/lXnOuvXE/xE/6pznfVy3U/0r7qis17GL6K/t3kLs3xnWpyIqbpdvORZvNvZTm9GneItzbWvcy5evE5V9kN8PR2m7b1eR0i51xF9/bdgz+6V0Lsc4+Hd8uHwZZipUZzcv7iL0vmLyw9Xw+Lt7lzgdTJUyZtr/R6x9YGa436V4zcVpteJmmPoV6HLu0B9X714uXY11JlKIpWWuHmk8obMJnHW1W/8rg2Zfum815Om3eJhnFk8CbMonuZQrTRTs+0LdRknqmWXSb+qkZoOV09o/ll7P8+Cvs4E/Yaw1H+Ur4OvfVN+Ids9H6nsdJrp65OHuLyeDgrS9pb4y+J9cE2oHo5+t3Zs6BZdinY2jtI8r/VxdoF0Wzqom1+/03Awbv8N7Kq2wC9fmC51z2dxGmnBH/OPbc5m0bTMF6iS+NYNaYEVTYdKD9xt2XE8etGu6h54GamJzrd2eU3n42SUxNczNRTffSf+UX5+1z0fh2k5n+gBtrXce//F3vyCdMPR6JWO0Z2o6Sgbi+ciEP8RrReTSUscr34jnUQD1d6WW+9677fWjrdHZxInon2Vn0rve3GVhylTtYyrP/vXiZDuN0g3ncal3rur990PKp/eTk7mF6+eYqFa3vYr11NdtItEhR/qHPzJ8RjX7+vrVZ7diU5rnQxlphSFsXs+9z1Rw5e65Kbviiv5vt6lXNzo2XU6bte9F/ktPZ7fz/ojaTI5tjnLrv5m3ShplsQflF2c+XfrRopn4SBfbdmFKr9c+6yKEItQdVUWE8nqtFJneDhPProthvPqxJOvVaWrmstws2f91CmqqtX3P61bU+i2syP++POt+O/rP9+Is9dv3v7y+0/i19c//fJS/Hz65tRO4FU+a6u7UC/RRBaLNM4X0tPrj3keDESxRExFmA7yxUs0HVkoLq691lmqzGFHXNhPLonKrpOpmIVJql5N4jBrh3rK38pv5dJnF8VnVhdz/RJtKWx5CuuEP30Ff6rP3kovjKfmb5l/Fbss4AAHOMABDnCAAxzgAAc4wNl4nMeuH5ooUUPQgAY0oAENaEADGtCABjSgAU01zSOfJE2jfY+AAxzgAAc4wAEOcIADHOAABzh1cOw9wIp/YZt7eoEUpCAFKUhBClKQghSkIAUpSEEK0s0gXWumWJDOzRFBClKQghSkIAUpSEEKUpCCFKQgBelmkDo5sBbUc0dVUIMa1KAGNahBDWpQgxrUoAY1qEEN6q9IvcAaJuFte63YXTeLsok6G4cz1c3UXdZ+9nN8naTrMe4fH/lWfZypJMyuEyXar7a0xhqRnR3xYjgUoSi0xG2UjUUaf1Ri2F9zZHoz6oazmd5QpKWjt7bWHLBo3TDLkvkWMvs9x4P0hi+B/UFpdq/3XdF42+F0MI6T1sNmJ44al/E0275V0WicaY2LeDK015jfnd9PX/6w/WL77VglH+M0CzNxprJZHOXCL+N4Ek1Hz7aq7tfznXSQRLPs38bvPN8ZRjdf7jYeYxbLtUQ0PGkNdDq/zM8/jKYqOZeHLVFclJPWMEpnk/D+OJrq/XC2Lybx4MP3LTNfLjo/BZHdz/Lj9XXZuQpvwvmnlUfqVmzSczMSJ4u9eKbq9uxm1G798zFjR+zqrW3yP9aOpKUNXd79vUvUZ1Z+pn1U93e7fdPuT3Pnv5W9pypUAy+qfS+qu15U97yo7ntRXd5zb//AvAOYm+rKXnqyu7esultb9ciL6upGn3yy0o9s4Ee270d214/snh/ZfT+yB35k/Qwy6WeUBX5GWeBnlAV+iljgp4oFhDL22JiqxgohUUMHUctr6yZqeWXdRC2vq5uo5erATdRyceAmark2cBO1nLXcRC3nLDdR24WBo6rljOWoarkscFS1XBU4qlouChxVLdcEjqqWSwJHVcsVgaOql6Flux5wrAFexpbtasBR1UvBsl0LOKrWLVmPjFNqLAO0z4qDquVldVS1vKyOqpaX1VHVcingqGq5FnBUtVwMOKpaTlmOqpZTlqOq7XrAVdZy0nKVtVwRuMpaLglcZS3XBK6ylosCV1nLVYGrrOWywFXWzyCzXRi4VgU/o8x2aeAq66eI2S4OXGXrljH7V7Dr/PvC/I1thoC2v9qwBbT9PYctoO0vPWwBbf8tgy2g7T9zsAU8aDrgYdMBj5oOuLJSaiZi43ONbHyykY3PNrLx6UY2Pt/Ixicc2fiMIxufcmTjc07Q+JwTNL++aXzOsf4XK76IHHPO2jcH6yxT5y8aMgS0vYtsAW1vIltA23vIFtC2bLAFtK0abAFtiwZbQNuawRbQtmSwBbRepvJFbHyusV6m8kVsfLaxXqbyRWx8vrFepvJFbHzGsV6m8kVsfM6xXqbyRWx+fdP4nGO9TOWLyDHnOL3cUWfJOn8XhDm47d31Etz2RnsJbnvPvQS3LTlegttWHy/BbZ9R9xLc9ilbL8Ftn8X1Etz6wXg/0W2f7PUT3fYxez/RbZ/G9xPd9qF9P9Ftn+33E932FQA/0W3fFPAT/atOddbvHfhZ03zVuc76LQY/0b/qgs566e4nuuuS7r3NW5jlu9PiREzV7eIlz+LdznZ6M+oUb2mufZ1z8QJ2qrIf4uvpMG3v9TpCyr2O6Ou/BXt2r4Te5RgP75gPhy/DTI3i5P7FXZTOX19+uBoWb3nnAq+ToUreXOu3ia0P1Bz3qxy/qTC9TtQcQ78QXd4F6nvrxcu1q6HOVBKptMTNI5U3ZDaJs65+43dtyPRL572eNO0WD+PM4kmYRfE0h2qlmZptX6jLOFEtu0z6VY3UdLh6QvPP2vt5FvR1Jug3hKX+o3wpfO378gvZ7vlIZafTTF+fPMTl9XRQkLa3xF8Wb4VrQvVw9Lu1Y0O36FK0s3GU5nmtj7MLpNvSQd38+p2Gg3H7b2BXtQV++cJ0qXs+i9NIC/6Yf2xzNoumZb5AlcS3bkgLrGg6VHrgbsuO49GLdlX3wMtITXS+tctrOh8noyS+nqmh+O478Y/y87vu+ThMy/lED7Ct5d77L/bmF6QbjkavdIzuRE1H2Vg8F4H4j2i9mExa4nj1G+kkGqj2ttx613u/tXa8PTqTOBHtq/xUet+LqzxMmaplXP3Zv06EdL9Buuk0LvXeXb3vflD59HZyMr949RQL1fK2X7me6qJdJCr8UOfgT47HuH5fX6/y7E50WutkKDOlKIzd87n/iRq+1CU3fVdcyff1LuXiRs+u03G77r3Ib+nx/H7WH0mTybHNWXb1N+tGSbMk/qDs4sy/WzdSPAsH+WrLLlT55dpnVYRYhKqrsphIVqeVOsPDefLRbTGcVyeefK0qXdVchps966dOUVWtvv9p3ZpCt50d8cefb8V/X//5Rpy9fvP2l99/Er++/umXl+Ln0zendgKv8llb3YV6iSayWKRxvpCeXn/M82AgiiViKsJ0kC9eounIQnFx7bXOUmUOO+LCfnJJVHadTMUsTFL1ahKHWTvUU/5WfiuXPrsoPrO6mOuXaEthy1NYJ/zpK/hUffZWemFANX/L/KvYZgEHOMABDnCAAxzgAAc4wAHOxuM8dv3QRIkaggY0oAENaEADGtCABjSgAQ1oqmke+SRpGu17BBzgAAc4wAEOcIADHOAABzjAqYNj7wFW/Avb3NMLpCAFKUhBClKQghSkIAUpSEEKUpBuBulaM8WCdG6OCFKQghSkIAUpSEEKUpCCFKQgBSlIN4PUyYG1oJ47qoIa1KAGNahBDWpQgxrUoAY1qEENalB/ReoF1jAJb9trxe66WZRN1Nk4nKlupu6y9rOf4+skXY9x//jIt+rjTCVhdp0o0X61pTXWiOzsiBfDoQhFoSVuo2ws0vijEsP+miPTm1E3nM30hiItHb21teaAReuGWZbMt5DZ7zkepDd8CewPSrN7ve+KxtsOp4NxnLQeNjtx1LiMp9n2rYpG40xrXMSTob3G/O78fvryh+0X22/HKvkYp1mYiTOVzeIoF/5ZhVk0HT3bqrpfz3fSQRLNsn8bv/N8ZxjdfLnbeIxZLNcS0fCkNdDp/DI//zCaquRcHrVEcVFOWsMonU3C++NoqvfD2b6YxIMP37fMfLno/BREdj/Lj9fXZecqvAnnn1YeqVuxSc/NSJws9uKZqtuzm1G79c/HjB2xq7e2yf9YO5KWNnR59/cuUZ9Z+Zn2UZX9Yg+wgZ5+9I5Pc7e/lf2mKpQCNqU+m9Ium9Iem9I+m9IBm9Ihm9IRm9LK5ptEKb4sl3xpLvnyXPIluuTLdMmX6pIv1yVfsku+bA/4sj1gnNP5sj3gy/bAMdsfGy9ZVsBEDR2EKq6Vm1DFlXITqrhObkIVc4KbUMWM4CZUMR+4CVXMBm5CFXOBm1BV4XNUYsvtqrLnqMSW3VVFz1GJLb+rSp6jEluGVxU8RyW2HK8qd45KfPM3W45X1TpHJZccf2R8YVnmtDeGg1LFZXJUqrhMjkoVl8lRqWIqcFSqmAoclSqmAkeliqnAUaliKnBUqqp3rlJ8WV5V8Vyl+PK8qua5SvFlelXVc5Xiy/WquucqxZftVZXPVYpxTufL9qri5yq1NtuxGT02oy+FLA7DZvSPGjajt8HCZvTYjL5Ow2b0umEzemxGXzRsRl/9TWxGv15AN2xGvxl7NgIHOMABDnCAAxzgAAc4wAHOxuM8sa0cQQMa0IAGNKABDWhAAxrQgGZzaJ7Wno3AAQ5wgAMc4AAHOMABDnCA86RwvqI524tBFt1E2f2v6kZNRPt/YM/2FO3Zypu0EU5sQe/pO7HljE05sfW6vT0WIzaSUJ9LaJdLaI9LaJ9L6IBL6JBL6IhLaOW9fJoSW25LtuSWbNkt2dJbsuW3ZEtwyZbhki3FJVuOB2w5HvDN32w5HrDleOCW4/aOa6ta9Q3XKDrmq1Tfbo2iY54F6putUXTMM0B9qzWKjnn0E4zWSEJcGV1R3gguayQhrqSuqG0EizWSEFdeVxQ2gr8aaWbkyuyKqkYwVyMJcWV2RUmr76y2qkMwViMJmS8RwVaNJGQe/ARTNZKQefATLNVIQubBTzFUoymx5XZFZaO4qdGU2NK7orhRrNRoSmwZXlHfKD5qtLmSLccrShzFRI2mxJbjFVUODmpwUIOD2iNCOKjpBgc1OKjBQa2iwUENDmpOZwUHtZX4Dt+Hg9pyg4PaQ/PwwNYTMxoADnCAAxzgAAc4wAEOcIADnI3HeWL+A6ABDWhAAxrQgAY0oAENaECzOTTfjO8BcIADHOAABzjAAQ5wgAMc4NSP9xUc1GCY9qQM084GYzW8zq+yfh0qVZmQvc2wTZMbYJsmG7NN2y9eCq1rccMl1OcS2uUS2uMS2ucSOuASOuQSOuISWnn7nqbEltuSLbklW3ZLtvSWbPkt2RJcsmW4ZEtxyZbjAVuOB3zzN1uOB2w5HrjluL1t2qpWfds0io75KtW3TaPomGeB+rZpFB3zDFDfNo2iYx79BNs0khBXRleUN4JtGkmIK6krahvBNo0kxJXXFYWNYJtGmhm5MruiqhFs00hCXJldUdLq26at6hBs00hC5ktEsE0jCZkHP8E2jSRkHvwE2zSSkHnwU2zTaEpsuV1R2Si2aTQltvSuKG4U2zSaEluGV9Q3im0aba5ky/GKEkexTaMpseV4RZWDbRps02Cb9ogQtmm6wTYNtmmwTatosE2DbZrTWcE2bSW+w/dhm7bcYJv20Dw8pfXE3AWAAxzgAAc4wAEOcIADHOAAZ+NxnpjpAGhAAxrQgAY0oAENaEADGtBsDs03Y3YAHOAABzjAAQ5wgAMc4AAHOPXjwTatbLBNe7BNk5thmxZsgG1a0JhtWq8bsLimUXT6TDq7TDp7TDr7TDoHTDqHTDpHTDorL92ThLgyWnKltOTKacmV1JIrqyVXWkuuvJZciS25MjvgyuyAba7myuyAK7MDp8y2t0dbkarvjkaQMV6h+t5oBBnjuK/vjEaQMY75+r5oBBnjeCe4olF0mPLYXMYIlmgUHaZUNtcwgh8aRYcpm80FjGCGRpkHmfLZXL0ITmgUHaZ8Npeu+jZoKzIEFzSKjvHyEDzQKDrG4U5wQKPoGIc7wf+MomMc7hT3M5IQV0abKxjF+owkxJXU5iJG8T0jCXHltbmOUUzPSDMjV2abSxnF8YwkxJXZ5moGuzPYncHu7BEh7M50g90Z7M5gd1bRYHcGuzOns4Ld2Up8h+/D7my5we7soXl4uuqJuQIABzjAAQ5wgAMc4AAHOMABzsbjPDGzANCABjSgAQ1oQAMa0IAGNKDZHJpvxqQAOMABDnCAAxzgAAc4wAEOcOrHg91Z2WB39mB3FmyG3Vl/A+zO+g3anfX2mPzOCEJ9LqFdLqE9LqF9LqEDLqFDLqEjLqHPXrenKLHltmRLbsmW3ZItvSVbfku2BJdsGS7ZUlyy5XjAluMB3/zNluMBW44HbjnuYoO2rEXxQauvY75KFCe0+jrmWYDihVZfxzwDUNzQ6uuYRz/JD40gxJXRFeWNZIlGEOJK6oraRnJFIwhx5XVFYSMZoxFmRq7MrqhqJG80ghBXZleUNIo92rIOyR+NIGS+RCSHNIKQefCTPNIIQubBT3JJIwiZBz/NJ42ixJbbFZWNZpVGUWJL74riRnNLoyixZXhFfaMZplHmSrYcryhxNM80ihJbjldUOdimwTYNtmmPCGGbphts02CbBtu0igbbNNimOZ0VbNNW4jt8H7Zpyw22aQ/Nw1NaT8xdADjAAQ5wgAMc4AAHOMABDnA2HueJmQ6ABjSgAQ1oQAMa0IAGNKABzebQfDNmB8ABDnCAAxzgAAc4wAEOcIBTPx5s08oG27QH27T+Ztim7W6AbdpuY7Zp+8VLoXUtbriE+lxCu1xCe1xC+1xCB1xCh1xCR1xCK2/f05TYcluyJbdky27Jlt6SLb8lW4JLtgyXbCku2XI8YMvxgG/+ZsvxgC3HA7cct7dNW9Wqb5tG0TFfpfq2aRQd8yxQ3zaNomOeAerbplF0zKOfYJtGEuLK6IryRrBNIwlxJXVFbSPYppGEuPK6orARbNNIMyNXZldUNYJtGkmIK7MrSlp927RVHYJtGknIfIkItmkkIfPgJ9imkYTMg59gm0YSMg9+im0aTYkttysqG8U2jabElt4VxY1im0ZTYsvwivpGsU2jzZVsOV5R4ii2aTQlthyvqHKwTYNtGmzTHhHCNk032KbBNg22aRUNtmmwTXM6K9imrcR3+D5s05YbbNMemoentJ6YuwBwgAMc4AAHOMABDnCAAxzgbDzOEzMdAA1oQAMa0IAGNKABDWhAA5rNoflmzA6AAxzgAAc4wAEOcIADHOAAp3482KaVDbZpD7Zpu5thm7a3AbZpe43ZpvW6AYtrGkWnz6Szy6Szx6Szz6RzwKRzyKRzxKSz8tI9SYgroyVXSkuunJZcSS25slpypbXkymvJldiSK7MDrswO2OZqrswOuDI7cMpse3u0Fan67mgEGeMVqu+NRpAxjvv6zmgEGeOYr++LRpAxjneCKxpFhymPzWWMYIlG0WFKZXMNI/ihUXSYstlcwAhmaJR5kCmfzdWL4IRG0WHKZ3Ppqm+DtiJDcEGj6BgvD8EDjaJjHO4EBzSKjnG4E/zPKDrG4U5xPyMJcWW0uYJRrM9IQlxJbS5iFN8zkhBXXpvrGMX0jDQzcmW2uZRRHM9IQlyZba5msDuD3Rnszh4Rwu5MN9idwe4MdmcVDXZnsDtzOivYna3Ed/g+7M6WG+zOHpqHp6uemCsAcIADHOAABzjAAQ5wgAMc4Gw8zhMzCwANaEADGtCABjSgAQ1oQAOazaH5ZkwKgAMc4AAHOMABDnCAAxzgAKd+PNidlQ12Zw92Z3ubYXe2vwF2Z/sN2p319pj8zghCfS6hXS6hPS6hfS6hAy6hQy6hIy6hz163pyix5bZkS27Jlt2SLb0lW35LtgSXbBku2VJcsuV4wJbjAd/8zZbjAVuOB2457mKDtqxF8UGrr2O+ShQntPo65lmA4oVWX8c8A1Dc0OrrmEc/yQ+NIMSV0RXljWSJRhDiSuqK2kZyRSMIceV1RWEjGaMRZkauzK6oaiRvNIIQV2ZXlDSKPdqyDskfjSBkvkQkhzSCkHnwkzzSCELmwU9ySSMImQc/zSeNosSW2xWVjWaVRlFiS++K4kZzS6MosWV4RX2jGaZR5kq2HK8ocTTPNIoSW45XVDnYpsE2DbZpjwhhm6YbbNNgmwbbtIoG2zTYpjmdFWzTVuI7fB+2acsNtmkPzcNTWk/MXQA4wAEOcIADHOAABzjAAQ5wNh7niZkOgAY0oAENaEADGtCABjSgAc3m0HwzZgfAAQ5wgAMc4AAHOMABDnCAUz8ebNPKBtu0B9u0/c2wTTvYANu0g8Zs0/aLl0LrWtxwCfW5hHa5hPa4hPa5hA64hA65hI64hFbevqcpseW2ZEtuyZbdki29JVt+S7YEl2wZLtlSXLLleMCW4wHf/M2W4wFbjgduOW5vm7aqVd82jaJjvkr1bdMoOuZZoL5tGkXHPAPUt02j6JhHP8E2jSTEldEV5Y1gm0YS4krqitpGsE0jCXHldUVhI9imkWZGrsyuqGoE2zSSEFdmV5S0+rZpqzoE2zSSkPkSEWzTSELmwU+wTSMJmQc/wTaNJGQe/BTbNJoSW25XVDaKbRpNiS29K4obxTaNpsSW4RX1jWKbRpsr2XK8osRRbNNoSmw5XlHlYJsG2zTYpj0ihG2abrBNg20abNMqGmzTYJvmdFawTVuJ7/B92KYtN9imPTQPT2k9MXcB4AAHOMABDnCAAxzgAAc4wNl4nCdmOgAa0IAGNKABDWhAAxrQgAY0m0PzzZgdAAc4wAEOcIADHOAABzjAAU79eLBNKxts0x5s0w42wzbtcANs0w4bs03rdQMW1zSKTp9JZ5dJZ49JZ59J54BJ55BJ54hJZ+Wle5IQV0ZLrpSWXDktuZJacmW15EpryZXXkiuxJVdmB1yZHbDN1VyZHXBlduCU2fb2aCtS9d3RCDLGK1TfG40gYxz39Z3RCDLGMV/fF40gYxzvBFc0ig5THpvLGMESjaLDlMrmGkbwQ6PoMGWzuYARzNAo8yBTPpurF8EJjaLDlM/m0lXfBm1FhuCCRtExXh6CBxpFxzjcCQ5oFB3jcCf4n1F0jMOd4n5GEuLKaHMFo1ifkYS4ktpcxCi+ZyQhrrw21zGK6RlpZuTKbHMpoziekYS4MttczWB3Brsz2J09IoTdmW6wO4PdGezOKhrszmB35nRWsDtbie/wfdidLTfYnT00D09XPTFXAOAABzjAAQ5wgAMc4AAHOMDZeJwnZhYAGtCABjSgAQ1oQAMa0IAGNJtD882YFAAHOMABDnCAAxzgAAc4wAFO/XiwOysb7M4Wdmf9zXA7O9oAt7OjBt3OentMdmcEoT6X0C6X0B6X0D6X0AGX0CGX0BGX0Gdv21OU2HJbsiW3ZMtuyZbeki2/JVuCS7YMl2wpLtlyPGDL8YBv/mbL8YAtxwO3HHdxQVvWotig1dcxXyWKEVp9HfMsQLFCq69jngEoZmj1dcyjn2SHRhDiyuiK8kZyRCMIcSV1RW0jmaIRhLjyuqKwkXzRCDMjV2ZXVDWSNRpBiCuzK0oaxR1tWYdkj0YQMl8ikkEaQcg8+EkWaQQh8+AnmaQRhMyDn2aTRlFiy+2KykZzSqMosaV3RXGjmaVRlNgyvKK+0fzSKHMlW45XlDiaZRpFiS3HK6ocXNPgmgbXtEeEcE3TDa5pcE2Da1pFg2saXNOczgquaSvxHb4P17TlBte0h+bhIa0nZi4AHOAABzjAAQ5wgAMc4AAHOBuP88Q8B0ADGtCABjSgAQ1oQAMa0IBmc2i+Ga8D4AAHOMABDnCAAxzgAAc4wKkfD65pZYNr2sI1bXcjXNP6vafvmpYzNuWatl+8E1rX4YZLqM8ltMsltMcltM8ldMAldMgldMQltPLyPU2JLbclW3JLtuyWbOkt2fJbsiW4ZMtwyZbiki3HA7YcD/jmb7YcD9hyPHDLcXvXtFWt+q5pFB3zVarvmkbRMc8C9V3TKDrmGaC+axpFxzz6Ca5pJCGujK4obwTXNJIQV1JX1DaCaxpJiCuvKwobwTWNNDNyZXZFVSO4ppGEuDK7oqTVd01b1SG4ppGEzJeI4JpGEjIPfoJrGknIPPgJrmkkIfPgp7im0ZTYcruislFc02hKbOldUdwormk0JbYMr6hvFNc02lzJluMVJY7imkZTYsvxiioH1zS4psE17REhXNN0g2saXNPgmlbR4JoG1zSns4Jr2kp8h+/DNW25wTXtoXl4SOuJmQsABzjAAQ5wgAMc4AAHOMABzsbjPDHPAdCABjSgAQ1oQAMa0IAGNKDZHJpvxusAOMABDnCAAxzgAAc4wAEOcOrHg2ta2eCatnBN29sM1zS5Aa5psjHXtF43YDFNo+j0mXR2mXT2mHT2mXQOmHQOmXSOmHRW3rknCXFltORKacmV05IrqSVXVkuutJZceS25EltyZXbAldkB21zNldkBV2YHTplt7462IlXfHI0gY7xC9a3RCDLGcV/fGI0gYxzz9W3RCDLG8U4wRaPoMOWxuYwRHNEoOkypbK5hBDs0ig5TNpsLGMELjTIPMuWzuXoRjNAoOkz5bC5d9V3QVmQIJmgUHePlIVigUXSMw51ggEbRMQ53gv0ZRcc43CnmZyQhrow2VzCK8xlJiCupzUWMYntGEuLKa3Mdo3iekWZGrsw2lzKK4RlJiCuzzdUMbmdwO4Pb2SNCuJ3pBrczuJ3B7ayiwe0MbmdOZwW3s5X4Dt+H29lyg9vZQ/PwcNUTMwUADnCAAxzgAAc4wAEOcIADnI3HeWJeAaABDWhAAxrQgAY0oAENaECzOTTfjEcBcIADHOAABzjAAQ5wgAMc4NSPB7ezssHtbOF2tr8ZbmfBBridBQ26nfX2mOzOCEJ9LqFdLqE9LqF9LqEDLqFDLqEjLqHP3ranKLHltmRLbsmW3ZItvSVbfku2BJdsGS7ZUlyy5XjAluMB3/zNluMBW44Hbjnu4oK2rEWxQauvY75KFCO0+jrmWYBihVZfxzwDUMzQ6uuYRz/JDo0gxJXRFeWN5IhGEOJK6oraRjJFIwhx5XVFYSP5ohFmRq7MrqhqJGs0ghBXZleUNIo72rIOyR6NIGS+RCSDNIKQefCTLNIIQubBTzJJIwiZBz/NJo2ixJbbFZWN5pRGUWJL74riRjNLoyixZXhFfaP5pVHmSrYcryhxNMs0ihJbjldUObimwTUNrmmPCOGaphtc0+CaBte0igbXNLimOZ0VXNNW4jt8H65pyw2uaQ/Nw0NaT8xcADjAAQ5wgAMc4AAHOMABDnA2HueJeQ6ABjSgAQ1oQAMa0IAGNKABzebQfDNeB8ABDnCAAxzgAAc4wAEOcIBTPx5c08oG17SFa9rBZrim9TfANa3fmGvafvFOaF2HGy6hPpfQLpfQHpfQPpfQAZfQIZfQEZfQysv3NCW23JZsyS3Zsluypbdky2/JluCSLcMlW4pLthwP2HI84Ju/2XI8YMvxwC3H7V3TVrXqu6ZRdMxXqb5rGkXHPAvUd02j6JhngPquaRQd8+gnuKaRhLgyuqK8EVzTSEJcSV1R2wiuaSQhrryuKGwE1zTSzMiV2RVVjeCaRhLiyuyKklbfNW1Vh+CaRhIyXyKCaxpJyDz4Ca5pJCHz4Ce4ppGEzIOf4ppGU2LL7YrKRnFNoymxpXdFcaO4ptGU2DK8or5RXNNocyVbjleUOIprGk2JLccrqhxc0+CaBte0R4RwTdMNrmlwTYNrWkWDaxpc05zOCq5pK/Edvg/XtOUG17SH5uEhrSdmLgAc4AAHOMABDnCAAxzgAAc4G4/zxDwHQAMa0IAGNKABDWhAAxrQgGZzaL4ZrwPgAAc4wAEOcIADHOAABzjAqR8Prmllg2vawjXtcDNc03Y3wDVttzHXtF43YDFNo+j0mXR2mXT2mHT2mXQOmHQOmXSOmHRW3rknCXFltORKacmV05IrqSVXVkuutJZceS25EltyZXbAldkB21zNldkBV2YHTplt7462IlXfHI0gY7xC9a3RCDLGcV/fGI0gYxzz9W3RCDLG8U4wRaPoMOWxuYwRHNEoOkypbK5hBDs0ig5TNpsLGMELjTIPMuWzuXoRjNAoOkz5bC5d9V3QVmQIJmgUHePlIVigUXSMw51ggEbRMQ53gv0ZRcc43CnmZyQhrow2VzCK8xlJiCupzUWMYntGEuLKa3Mdo3iekWZGrsw2lzKK4RlJiCuzzdUMbmdwO4Pb2SNCuJ3pBrczuJ3B7ayiwe0MbmdOZwW3s5X4Dt+H29lyg9vZQ/PwcNUTMwUADnCAAxzgAAc4wAEOcIADnI3HeWJeAaABDWhAAxrQgAY0oAENaECzOTTfjEcBcIADHOAABzjAAQ5wgAMc4NSPB7ezssHtbOF2drQZbmd7G+B2tteY25nc7XV7S03uspifMcr2/cju+pHd8yO770f2wI/soR/ZIz+yK+/6c+p6GmfS00CTnkaa9DTUpKexJj0NNulptElPw016Gm+Bp/EW+KprnsZb4Gm8BZTxZu8qV6Vc32SOT9X26ta3oONTtZ3J6hvU8anazmL17ev4VG1nMIK5HaOsn9FlvVwgOOExyvoZYNZrBYJtHqOsnzFmvVAgeOwxVgU/o8x6lUAw5GOU9TPKrJcI9d37qlQJZn6MsraXlmD1xyhrO4ERjAAZZW0nMIJNIKOs7QRGMRHk1PU0zqxXChTHQU5dT0PNerFAsSfk1PU02qzXCxQvQ8464Wm8WS8ZKMaHnLqexpv1qgEuiXBJhEviI0K4JOoGl0S4JMIlsaLBJREuiU5nBZfElfgO34dL4nKDS+JD8/BQ5hMzEwEOcIADHOAABzjAAQ5wgAOcjcd5Yh4joAENaEADGtCABjSgAQ1oQLM5NN+MtwlwgAMc4AAHOMABDnCAAxzg1I/3FVwS36qPM5WE2XWiRPvVFkwTn5ZpokpuooES/xPqzPs1jmdC3zD9nPNu79VmGCjub4CB4n5jBor7R92jpXZ4xOKfyKfa96K660V1z4vqvhfVAy+qh15Uj7yortgbMMr6GV3Sz/CSfsaX9DPApJ8RJv0MMelnjEk/g0z6GWWBn1EWeKphfkZZ4GeUBYRRZm+UWCFc3yeRTdTyytZ3SWQTtZy76nsksolazlv1HRLZRC3nLII/Ip+qlzFluywgmCPyqXoZVrZrAoIzIp+ql5FluyAg2CLy1QAvY8t2NUDwRORT9TK2bJcC9Q0RK0QJfoh8qpaXleCGyKdqOWURvBD5VC2nLIITIp+q5ZRF8UFklPUzumxXBBQTREZZPwPMdlFAcUBklPUzxmzXBRT7Q8aq4GeU2S4NKN6HjLJ+Rpnt6gDGhzA+hPHhI0IYH+oG40MYH8L4sKLB+BDGh05nBePDlfgO34fx4XKD8eFD8/Cc5RPzBwEOcIADHOAABzjAAQ5wgAOcjcd5YrYhoAENaEADGtCABjSgAQ1oQLM5NN+MXQlwgAMc4AAHOMABDnCAAxzg1I8H48Mvt2/W+HBuePizKv7nxceLSE2zufXh2WCshtf59d8WB5tigXiwARaIB41ZIBYvnta1YGLS6TPp7DLp7DHp7DPpHDDpHDLpHDHprHgLkIS4MlpypbTkymnJldSSK6slV1pLrryWXIktuTI74MrsgG2u5srsgCuzA6fMtrfsW5Gqb9JHkDFeofpGfAQZ47ivb7ZHkDGO+fqGegQZ43gnmOZRdJjy2FzGCFZ4FB2mVDbXMILBHUWHKZvNBYxgW0eZB5ny2Vy9CGZ0FB2mfDaXrvoWcysyBFM5io7x8hCM4yg6xuFOMIej6BiHO8EAjqJjHO4UkzeSEFdGmysYxbqNJMSV1OYiRjFkIwlx5bW5jlFs1kgzI1dmm0sZxTyNJMSV2eZqBku0jbBEQze60Y1udKMb3ehGN7rRjW50oxvd6Eb3U+q+78Y3Kkmiofot1D9UyW4PlvhLZwJL/IcGS3ynBkt8WOI7NFjif95gif95gyW+Y4MlPizxv9hgiQ8c4AAHOMABDnCAAxzgAAc4wNkEQ0nQgAY0oAENaEADGtCABjSg2Ryab8bIEjjAAQ5wgAMc4AAHOMABDnDqx/sKlvg/Rh/VNI3i6USlKQzxn5Yhfpx8EKeXl9EgUtPB/YMNfrMG+OW3P+tZ/v+Lv8//90G9/MvD/1zEw3v9v+Ps4+Tf/+v/AZHZVB0="
               },
               {
                  "name" : "annual_peak_electric_demand",
                  "units" : "kW",
                  "value" : 39.941890000000001
               },
               {
                  "name" : "first_year_capital_cost",
                  "units" : "$",
                  "value" : 0
               },
               {
                  "name" : "annual_utility_cost",
                  "units" : "$",
                  "value" : 13515.4
               },
               {
                  "name" : "total_lifecycle_cost",
                  "units" : "$",
                  "value" : 226280.32999999999
               }
            ],
            "step_warnings" : [ "A table in Annual Overview section returned false and was skipped." ]
         }
      }
   ],
   "updated_at" : "20170710T192905Z",
   "weather_file" : "USA_CO_Denver.Intl.AP.725650_TMY3.epw"
}
