{
   "completed_at" : "20170710T184114Z",
   "completed_status" : "Success",
   "created_at" : "2017-07-10 18:26:16 +0000",
   "current_step" : 5,
   "description" : "",
   "eplusout_err" : "Program Version,EnergyPlus, Version 8.7.0-78a111df4a, YMD=2017.07.10 18:30,IDD_Version 8.7.0\n   ************* IDF Context for following error/warning message:\n   ************* Note -- lines truncated at 300 characters, if necessary...\n   *************      5 Building,\n   ************* indicated Name=NECB 2011-SmallHotel-NECB HDD Method-CAN_NS_Greenwood.713970_CWEC.epw created: 2017-07-10 18:26:24 +0000\n   ************* Only last 1 lines before error line shown.....\n   *************      6   NECB 2011-SmallHotel-NECB HDD Method-CAN_NS_Greenwood.713970_CWEC.epw created: 2017-07-10 18:26:24 +0000, !- Name\n   ** Warning ** IP: IDF line~6 Alpha Argument length exceeds maximum, will be truncated=  NECB 2011-SmallHotel-NECB HDD Method-CAN_NS_Greenwood.713970_CWEC.epw created: 2017-07-10 18:26:24 +000\n   **   ~~~   ** Will be processed as Alpha=NECB 2011-SMALLHOTEL-NECB HDD METHOD-CAN_NS_GREENWOOD.713970_CWEC.EPW CREATED: 2017-07-10 18:26:24 +0000\n   ************* Beginning Zone Sizing Calculations\n   ** Warning ** ProcessScheduleInput: Schedule:Day:Interval=\"ECONOMIZER MAX OA FRACTION 100 PCT DEFAULT\", Blank Schedule Type Limits Name input -- will not be validated.\n   ** Warning ** ProcessScheduleInput: Schedule:Day:Interval=\"SCHEDULE DAY 1\", Blank Schedule Type Limits Name input -- will not be validated.\n   ** Warning ** ProcessScheduleInput: Schedule:Day:Interval=\"SCHEDULE DAY 10\", Blank Schedule Type Limits Name input -- will not be validated.\n   ** Warning ** ProcessScheduleInput: Schedule:Day:Interval=\"SCHEDULE DAY 100\", Blank Schedule Type Limits Name input -- will not be validated.\n   ** Warning ** ProcessScheduleInput: Schedule:Day:Interval=\"SCHEDULE DAY 101\", Blank Schedule Type Limits Name input -- will not be validated.\n   ** Warning ** ProcessScheduleInput: Schedule:Day:Interval=\"SCHEDULE DAY 102\", Blank Schedule Type Limits Name input -- will not be validated.\n   ** Warning ** ProcessScheduleInput: Schedule:Day:Interval=\"SCHEDULE DAY 103\", Blank Schedule Type Limits Name input -- will not be validated.\n   ** Warning ** ProcessScheduleInput: Schedule:Day:Interval=\"SCHEDULE DAY 104\", Blank Schedule Type Limits Name input -- will not be validated.\n   ** Warning ** ProcessScheduleInput: Schedule:Day:Interval=\"SCHEDULE DAY 105\", Blank Schedule Type Limits Name input -- will not be validated.\n   ** Warning ** ProcessScheduleInput: Schedule:Day:Interval=\"SCHEDULE DAY 106\", Blank Schedule Type Limits Name input -- will not be validated.\n   ** Warning ** ProcessScheduleInput: Schedule:Day:Interval=\"SCHEDULE DAY 107\", Blank Schedule Type Limits Name input -- will not be validated.\n   ** Warning ** ProcessScheduleInput: Schedule:Day:Interval=\"SCHEDULE DAY 108\", Blank Schedule Type Limits Name input -- will not be validated.\n   ** Warning ** ProcessScheduleInput: Schedule:Day:Interval=\"SCHEDULE DAY 109\", Blank Schedule Type Limits Name input -- will not be validated.\n   ** Warning ** ProcessScheduleInput: Schedule:Day:Interval=\"SCHEDULE DAY 11\", Blank Schedule Type Limits Name input -- will not be validated.\n   ** Warning ** ProcessScheduleInput: Schedule:Day:Interval=\"SCHEDULE DAY 110\", Blank Schedule Type Limits Name input -- will not be validated.\n   ** Warning ** ProcessScheduleInput: Schedule:Day:Interval=\"SCHEDULE DAY 111\", Blank Schedule Type Limits Name input -- will not be validated.\n   ** Warning ** ProcessScheduleInput: Schedule:Day:Interval=\"SCHEDULE DAY 112\", Blank Schedule Type Limits Name input -- will not be validated.\n   ** Warning ** ProcessScheduleInput: Schedule:Day:Interval=\"SCHEDULE DAY 113\", Blank Schedule Type Limits Name input -- will not be validated.\n   ** Warning ** ProcessScheduleInput: Schedule:Day:Interval=\"SCHEDULE DAY 114\", Blank Schedule Type Limits Name input -- will not be validated.\n   ** Warning ** ProcessScheduleInput: Schedule:Day:Interval=\"SCHEDULE DAY 115\", Blank Schedule Type Limits Name input -- will not be validated.\n   ** Warning ** ProcessScheduleInput: Schedule:Day:Interval=\"SCHEDULE DAY 116\", Blank Schedule Type Limits Name input -- will not be validated.\n   ** Warning ** ProcessScheduleInput: Schedule:Day:Interval=\"SCHEDULE DAY 117\", Blank Schedule Type Limits Name input -- will not be validated.\n   ** Warning ** ProcessScheduleInput: Schedule:Day:Interval=\"SCHEDULE DAY 118\", Blank Schedule Type Limits Name input -- will not be validated.\n   ** Warning ** ProcessScheduleInput: Schedule:Day:Interval=\"SCHEDULE DAY 119\", Blank Schedule Type Limits Name input -- will not be validated.\n   ** Warning ** ProcessScheduleInput: Schedule:Day:Interval=\"SCHEDULE DAY 12\", Blank Schedule Type Limits Name input -- will not be validated.\n   ** Warning ** ProcessScheduleInput: Schedule:Day:Interval=\"SCHEDULE DAY 120\", Blank Schedule Type Limits Name input -- will not be validated.\n   ** Warning ** ProcessScheduleInput: Schedule:Day:Interval=\"SCHEDULE DAY 121\", Blank Schedule Type Limits Name input -- will not be validated.\n   ** Warning ** ProcessScheduleInput: Schedule:Day:Interval=\"SCHEDULE DAY 122\", Blank Schedule Type Limits Name input -- will not be validated.\n   ** Warning ** ProcessScheduleInput: Schedule:Day:Interval=\"SCHEDULE DAY 123\", Blank Schedule Type Limits Name input -- will not be validated.\n   ** Warning ** ProcessScheduleInput: Schedule:Day:Interval=\"SCHEDULE DAY 124\", Blank Schedule Type Limits Name input -- will not be validated.\n   ** Warning ** ProcessScheduleInput: Schedule:Day:Interval=\"SCHEDULE DAY 125\", Blank Schedule Type Limits Name input -- will not be validated.\n   ** Warning ** ProcessScheduleInput: Schedule:Day:Interval=\"SCHEDULE DAY 126\", Blank Schedule Type Limits Name input -- will not be validated.\n   ** Warning ** ProcessScheduleInput: Schedule:Day:Interval=\"SCHEDULE DAY 127\", Blank Schedule Type Limits Name input -- will not be validated.\n   ** Warning ** ProcessScheduleInput: Schedule:Day:Interval=\"SCHEDULE DAY 128\", Blank Schedule Type Limits Name input -- will not be validated.\n   ** Warning ** ProcessScheduleInput: Schedule:Day:Interval=\"SCHEDULE DAY 129\", Blank Schedule Type Limits Name input -- will not be validated.\n   ** Warning ** ProcessScheduleInput: Schedule:Day:Interval=\"SCHEDULE DAY 13\", Blank Schedule Type Limits Name input -- will not be validated.\n   ** Warning ** ProcessScheduleInput: Schedule:Day:Interval=\"SCHEDULE DAY 130\", Blank Schedule Type Limits Name input -- will not be validated.\n   ** Warning ** ProcessScheduleInput: Schedule:Day:Interval=\"SCHEDULE DAY 131\", Blank Schedule Type Limits Name input -- will not be validated.\n   ** Warning ** ProcessScheduleInput: Schedule:Day:Interval=\"SCHEDULE DAY 132\", Blank Schedule Type Limits Name input -- will not be validated.\n   ** Warning ** ProcessScheduleInput: Schedule:Day:Interval=\"SCHEDULE DAY 133\", Blank Schedule Type Limits Name input -- will not be validated.\n   ** Warning ** ProcessScheduleInput: Schedule:Day:Interval=\"SCHEDULE DAY 134\", Blank Schedule Type Limits Name input -- will not be validated.\n   ** Warning ** ProcessScheduleInput: Schedule:Day:Interval=\"SCHEDULE DAY 135\", Blank Schedule Type Limits Name input -- will not be validated.\n   ** Warning ** ProcessScheduleInput: Schedule:Day:Interval=\"SCHEDULE DAY 136\", Blank Schedule Type Limits Name input -- will not be validated.\n   ** Warning ** ProcessScheduleInput: Schedule:Day:Interval=\"SCHEDULE DAY 137\", Blank Schedule Type Limits Name input -- will not be validated.\n   ** Warning ** ProcessScheduleInput: Schedule:Day:Interval=\"SCHEDULE DAY 138\", Blank Schedule Type Limits Name input -- will not be validated.\n   ** Warning ** ProcessScheduleInput: Schedule:Day:Interval=\"SCHEDULE DAY 139\", Blank Schedule Type Limits Name input -- will not be validated.\n   ** Warning ** ProcessScheduleInput: Schedule:Day:Interval=\"SCHEDULE DAY 14\", Blank Schedule Type Limits Name input -- will not be validated.\n   ** Warning ** ProcessScheduleInput: Schedule:Day:Interval=\"SCHEDULE DAY 140\", Blank Schedule Type Limits Name input -- will not be validated.\n   ** Warning ** ProcessScheduleInput: Schedule:Day:Interval=\"SCHEDULE DAY 141\", Blank Schedule Type Limits Name input -- will not be validated.\n   ** Warning ** ProcessScheduleInput: Schedule:Day:Interval=\"SCHEDULE DAY 142\", Blank Schedule Type Limits Name input -- will not be validated.\n   ** Warning ** ProcessScheduleInput: Schedule:Day:Interval=\"SCHEDULE DAY 143\", Blank Schedule Type Limits Name input -- will not be validated.\n   ** Warning ** ProcessScheduleInput: Schedule:Day:Interval=\"SCHEDULE DAY 144\", Blank Schedule Type Limits Name input -- will not be validated.\n   ** Warning ** ProcessScheduleInput: Schedule:Day:Interval=\"SCHEDULE DAY 145\", Blank Schedule Type Limits Name input -- will not be validated.\n   ** Warning ** ProcessScheduleInput: Schedule:Day:Interval=\"SCHEDULE DAY 146\", Blank Schedule Type Limits Name input -- will not be validated.\n   ** Warning ** ProcessScheduleInput: Schedule:Day:Interval=\"SCHEDULE DAY 147\", Blank Schedule Type Limits Name input -- will not be validated.\n   ** Warning ** ProcessScheduleInput: Schedule:Day:Interval=\"SCHEDULE DAY 148\", Blank Schedule Type Limits Name input -- will not be validated.\n   ** Warning ** ProcessScheduleInput: Schedule:Day:Interval=\"SCHEDULE DAY 149\", Blank Schedule Type Limits Name input -- will not be validated.\n   ** Warning ** ProcessScheduleInput: Schedule:Day:Interval=\"SCHEDULE DAY 15\", Blank Schedule Type Limits Name input -- will not be validated.\n   ** Warning ** ProcessScheduleInput: Schedule:Day:Interval=\"SCHEDULE DAY 150\", Blank Schedule Type Limits Name input -- will not be validated.\n   ** Warning ** ProcessScheduleInput: Schedule:Day:Interval=\"SCHEDULE DAY 151\", Blank Schedule Type Limits Name input -- will not be validated.\n   ** Warning ** ProcessScheduleInput: Schedule:Day:Interval=\"SCHEDULE DAY 152\", Blank Schedule Type Limits Name input -- will not be validated.\n   ** Warning ** ProcessScheduleInput: Schedule:Day:Interval=\"SCHEDULE DAY 153\", Blank Schedule Type Limits Name input -- will not be validated.\n   ** Warning ** ProcessScheduleInput: Schedule:Day:Interval=\"SCHEDULE DAY 154\", Blank Schedule Type Limits Name input -- will not be validated.\n   ** Warning ** ProcessScheduleInput: Schedule:Day:Interval=\"SCHEDULE DAY 155\", Blank Schedule Type Limits Name input -- will not be validated.\n   ** Warning ** ProcessScheduleInput: Schedule:Day:Interval=\"SCHEDULE DAY 16\", Blank Schedule Type Limits Name input -- will not be validated.\n   ** Warning ** ProcessScheduleInput: Schedule:Day:Interval=\"SCHEDULE DAY 17\", Blank Schedule Type Limits Name input -- will not be validated.\n   ** Warning ** ProcessScheduleInput: Schedule:Day:Interval=\"SCHEDULE DAY 18\", Blank Schedule Type Limits Name input -- will not be validated.\n   ** Warning ** ProcessScheduleInput: Schedule:Day:Interval=\"SCHEDULE DAY 19\", Blank Schedule Type Limits Name input -- will not be validated.\n   ** Warning ** ProcessScheduleInput: Schedule:Day:Interval=\"SCHEDULE DAY 2\", Blank Schedule Type Limits Name input -- will not be validated.\n   ** Warning ** ProcessScheduleInput: Schedule:Day:Interval=\"SCHEDULE DAY 20\", Blank Schedule Type Limits Name input -- will not be validated.\n   ** Warning ** ProcessScheduleInput: Schedule:Day:Interval=\"SCHEDULE DAY 21\", Blank Schedule Type Limits Name input -- will not be validated.\n   ** Warning ** ProcessScheduleInput: Schedule:Day:Interval=\"SCHEDULE DAY 22\", Blank Schedule Type Limits Name input -- will not be validated.\n   ** Warning ** ProcessScheduleInput: Schedule:Day:Interval=\"SCHEDULE DAY 23\", Blank Schedule Type Limits Name input -- will not be validated.\n   ** Warning ** ProcessScheduleInput: Schedule:Day:Interval=\"SCHEDULE DAY 24\", Blank Schedule Type Limits Name input -- will not be validated.\n   ** Warning ** ProcessScheduleInput: Schedule:Day:Interval=\"SCHEDULE DAY 25\", Blank Schedule Type Limits Name input -- will not be validated.\n   ** Warning ** ProcessScheduleInput: Schedule:Day:Interval=\"SCHEDULE DAY 26\", Blank Schedule Type Limits Name input -- will not be validated.\n   ** Warning ** ProcessScheduleInput: Schedule:Day:Interval=\"SCHEDULE DAY 27\", Blank Schedule Type Limits Name input -- will not be validated.\n   ** Warning ** ProcessScheduleInput: Schedule:Day:Interval=\"SCHEDULE DAY 28\", Blank Schedule Type Limits Name input -- will not be validated.\n   ** Warning ** ProcessScheduleInput: Schedule:Day:Interval=\"SCHEDULE DAY 29\", Blank Schedule Type Limits Name input -- will not be validated.\n   ** Warning ** ProcessScheduleInput: Schedule:Day:Interval=\"SCHEDULE DAY 30\", Blank Schedule Type Limits Name input -- will not be validated.\n   ** Warning ** ProcessScheduleInput: Schedule:Day:Interval=\"SCHEDULE DAY 31\", Blank Schedule Type Limits Name input -- will not be validated.\n   ** Warning ** ProcessScheduleInput: Schedule:Day:Interval=\"SCHEDULE DAY 32\", Blank Schedule Type Limits Name input -- will not be validated.\n   ** Warning ** ProcessScheduleInput: Schedule:Day:Interval=\"SCHEDULE DAY 33\", Blank Schedule Type Limits Name input -- will not be validated.\n   ** Warning ** ProcessScheduleInput: Schedule:Day:Interval=\"SCHEDULE DAY 34\", Blank Schedule Type Limits Name input -- will not be validated.\n   ** Warning ** ProcessScheduleInput: Schedule:Day:Interval=\"SCHEDULE DAY 35\", Blank Schedule Type Limits Name input -- will not be validated.\n   ** Warning ** ProcessScheduleInput: Schedule:Day:Interval=\"SCHEDULE DAY 36\", Blank Schedule Type Limits Name input -- will not be validated.\n   ** Warning ** ProcessScheduleInput: Schedule:Day:Interval=\"SCHEDULE DAY 37\", Blank Schedule Type Limits Name input -- will not be validated.\n   ** Warning ** ProcessScheduleInput: Schedule:Day:Interval=\"SCHEDULE DAY 38\", Blank Schedule Type Limits Name input -- will not be validated.\n   ** Warning ** ProcessScheduleInput: Schedule:Day:Interval=\"SCHEDULE DAY 39\", Blank Schedule Type Limits Name input -- will not be validated.\n   ** Warning ** ProcessScheduleInput: Schedule:Day:Interval=\"SCHEDULE DAY 40\", Blank Schedule Type Limits Name input -- will not be validated.\n   ** Warning ** ProcessScheduleInput: Schedule:Day:Interval=\"SCHEDULE DAY 41\", Blank Schedule Type Limits Name input -- will not be validated.\n   ** Warning ** ProcessScheduleInput: Schedule:Day:Interval=\"SCHEDULE DAY 42\", Blank Schedule Type Limits Name input -- will not be validated.\n   ** Warning ** ProcessScheduleInput: Schedule:Day:Interval=\"SCHEDULE DAY 43\", Blank Schedule Type Limits Name input -- will not be validated.\n   ** Warning ** ProcessScheduleInput: Schedule:Day:Interval=\"SCHEDULE DAY 44\", Blank Schedule Type Limits Name input -- will not be validated.\n   ** Warning ** ProcessScheduleInput: Schedule:Day:Interval=\"SCHEDULE DAY 45\", Blank Schedule Type Limits Name input -- will not be validated.\n   ** Warning ** ProcessScheduleInput: Schedule:Day:Interval=\"SCHEDULE DAY 46\", Blank Schedule Type Limits Name input -- will not be validated.\n   ** Warning ** ProcessScheduleInput: Schedule:Day:Interval=\"SCHEDULE DAY 47\", Blank Schedule Type Limits Name input -- will not be validated.\n   ** Warning ** ProcessScheduleInput: Schedule:Day:Interval=\"SCHEDULE DAY 48\", Blank Schedule Type Limits Name input -- will not be validated.\n   ** Warning ** ProcessScheduleInput: Schedule:Day:Interval=\"SCHEDULE DAY 49\", Blank Schedule Type Limits Name input -- will not be validated.\n   ** Warning ** ProcessScheduleInput: Schedule:Day:Interval=\"SCHEDULE DAY 50\", Blank Schedule Type Limits Name input -- will not be validated.\n   ** Warning ** ProcessScheduleInput: Schedule:Day:Interval=\"SCHEDULE DAY 51\", Blank Schedule Type Limits Name input -- will not be validated.\n   ** Warning ** ProcessScheduleInput: Schedule:Day:Interval=\"SCHEDULE DAY 52\", Blank Schedule Type Limits Name input -- will not be validated.\n   ** Warning ** ProcessScheduleInput: Schedule:Day:Interval=\"SCHEDULE DAY 53\", Blank Schedule Type Limits Name input -- will not be validated.\n   ** Warning ** ProcessScheduleInput: Schedule:Day:Interval=\"SCHEDULE DAY 54\", Blank Schedule Type Limits Name input -- will not be validated.\n   ** Warning ** ProcessScheduleInput: Schedule:Day:Interval=\"SCHEDULE DAY 55\", Blank Schedule Type Limits Name input -- will not be validated.\n   ** Warning ** ProcessScheduleInput: Schedule:Day:Interval=\"SCHEDULE DAY 56\", Blank Schedule Type Limits Name input -- will not be validated.\n   ** Warning ** ProcessScheduleInput: Schedule:Day:Interval=\"SCHEDULE DAY 57\", Blank Schedule Type Limits Name input -- will not be validated.\n   ** Warning ** ProcessScheduleInput: Schedule:Day:Interval=\"SCHEDULE DAY 58\", Blank Schedule Type Limits Name input -- will not be validated.\n   ** Warning ** ProcessScheduleInput: Schedule:Day:Interval=\"SCHEDULE DAY 59\", Blank Schedule Type Limits Name input -- will not be validated.\n   ** Warning ** ProcessScheduleInput: Schedule:Day:Interval=\"SCHEDULE DAY 60\", Blank Schedule Type Limits Name input -- will not be validated.\n   ** Warning ** ProcessScheduleInput: Schedule:Day:Interval=\"SCHEDULE DAY 61\", Blank Schedule Type Limits Name input -- will not be validated.\n   ** Warning ** ProcessScheduleInput: Schedule:Day:Interval=\"SCHEDULE DAY 62\", Blank Schedule Type Limits Name input -- will not be validated.\n   ** Warning ** ProcessScheduleInput: Schedule:Day:Interval=\"SCHEDULE DAY 63\", Blank Schedule Type Limits Name input -- will not be validated.\n   ** Warning ** ProcessScheduleInput: Schedule:Day:Interval=\"SCHEDULE DAY 64\", Blank Schedule Type Limits Name input -- will not be validated.\n   ** Warning ** ProcessScheduleInput: Schedule:Day:Interval=\"SCHEDULE DAY 65\", Blank Schedule Type Limits Name input -- will not be validated.\n   ** Warning ** ProcessScheduleInput: Schedule:Day:Interval=\"SCHEDULE DAY 66\", Blank Schedule Type Limits Name input -- will not be validated.\n   ** Warning ** ProcessScheduleInput: Schedule:Day:Interval=\"SCHEDULE DAY 67\", Blank Schedule Type Limits Name input -- will not be validated.\n   ** Warning ** ProcessScheduleInput: Schedule:Day:Interval=\"SCHEDULE DAY 68\", Blank Schedule Type Limits Name input -- will not be validated.\n   ** Warning ** ProcessScheduleInput: Schedule:Day:Interval=\"SCHEDULE DAY 69\", Blank Schedule Type Limits Name input -- will not be validated.\n   ** Warning ** ProcessScheduleInput: Schedule:Day:Interval=\"SCHEDULE DAY 70\", Blank Schedule Type Limits Name input -- will not be validated.\n   ** Warning ** ProcessScheduleInput: Schedule:Day:Interval=\"SCHEDULE DAY 71\", Blank Schedule Type Limits Name input -- will not be validated.\n   ** Warning ** ProcessScheduleInput: Schedule:Day:Interval=\"SCHEDULE DAY 72\", Blank Schedule Type Limits Name input -- will not be validated.\n   ** Warning ** ProcessScheduleInput: Schedule:Day:Interval=\"SCHEDULE DAY 73\", Blank Schedule Type Limits Name input -- will not be validated.\n   ** Warning ** ProcessScheduleInput: Schedule:Day:Interval=\"SCHEDULE DAY 74\", Blank Schedule Type Limits Name input -- will not be validated.\n   ** Warning ** ProcessScheduleInput: Schedule:Day:Interval=\"SCHEDULE DAY 75\", Blank Schedule Type Limits Name input -- will not be validated.\n   ** Warning ** ProcessScheduleInput: Schedule:Day:Interval=\"SCHEDULE DAY 76\", Blank Schedule Type Limits Name input -- will not be validated.\n   ** Warning ** ProcessScheduleInput: Schedule:Day:Interval=\"SCHEDULE DAY 77\", Blank Schedule Type Limits Name input -- will not be validated.\n   ** Warning ** ProcessScheduleInput: Schedule:Day:Interval=\"SCHEDULE DAY 78\", Blank Schedule Type Limits Name input -- will not be validated.\n   ** Warning ** ProcessScheduleInput: Schedule:Day:Interval=\"SCHEDULE DAY 79\", Blank Schedule Type Limits Name input -- will not be validated.\n   ** Warning ** ProcessScheduleInput: Schedule:Day:Interval=\"SCHEDULE DAY 8\", Blank Schedule Type Limits Name input -- will not be validated.\n   ** Warning ** ProcessScheduleInput: Schedule:Day:Interval=\"SCHEDULE DAY 80\", Blank Schedule Type Limits Name input -- will not be validated.\n   ** Warning ** ProcessScheduleInput: Schedule:Day:Interval=\"SCHEDULE DAY 81\", Blank Schedule Type Limits Name input -- will not be validated.\n   ** Warning ** ProcessScheduleInput: Schedule:Day:Interval=\"SCHEDULE DAY 82\", Blank Schedule Type Limits Name input -- will not be validated.\n   ** Warning ** ProcessScheduleInput: Schedule:Day:Interval=\"SCHEDULE DAY 83\", Blank Schedule Type Limits Name input -- will not be validated.\n   ** Warning ** ProcessScheduleInput: Schedule:Day:Interval=\"SCHEDULE DAY 84\", Blank Schedule Type Limits Name input -- will not be validated.\n   ** Warning ** ProcessScheduleInput: Schedule:Day:Interval=\"SCHEDULE DAY 85\", Blank Schedule Type Limits Name input -- will not be validated.\n   ** Warning ** ProcessScheduleInput: Schedule:Day:Interval=\"SCHEDULE DAY 86\", Blank Schedule Type Limits Name input -- will not be validated.\n   ** Warning ** ProcessScheduleInput: Schedule:Day:Interval=\"SCHEDULE DAY 87\", Blank Schedule Type Limits Name input -- will not be validated.\n   ** Warning ** ProcessScheduleInput: Schedule:Day:Interval=\"SCHEDULE DAY 88\", Blank Schedule Type Limits Name input -- will not be validated.\n   ** Warning ** ProcessScheduleInput: Schedule:Day:Interval=\"SCHEDULE DAY 89\", Blank Schedule Type Limits Name input -- will not be validated.\n   ** Warning ** ProcessScheduleInput: Schedule:Day:Interval=\"SCHEDULE DAY 9\", Blank Schedule Type Limits Name input -- will not be validated.\n   ** Warning ** ProcessScheduleInput: Schedule:Day:Interval=\"SCHEDULE DAY 90\", Blank Schedule Type Limits Name input -- will not be validated.\n   ** Warning ** ProcessScheduleInput: Schedule:Day:Interval=\"SCHEDULE DAY 91\", Blank Schedule Type Limits Name input -- will not be validated.\n   ** Warning ** ProcessScheduleInput: Schedule:Day:Interval=\"SCHEDULE DAY 92\", Blank Schedule Type Limits Name input -- will not be validated.\n   ** Warning ** ProcessScheduleInput: Schedule:Day:Interval=\"SCHEDULE DAY 93\", Blank Schedule Type Limits Name input -- will not be validated.\n   ** Warning ** ProcessScheduleInput: Schedule:Day:Interval=\"SCHEDULE DAY 94\", Blank Schedule Type Limits Name input -- will not be validated.\n   ** Warning ** ProcessScheduleInput: Schedule:Day:Interval=\"SCHEDULE DAY 95\", Blank Schedule Type Limits Name input -- will not be validated.\n   ** Warning ** ProcessScheduleInput: Schedule:Day:Interval=\"SCHEDULE DAY 96\", Blank Schedule Type Limits Name input -- will not be validated.\n   ** Warning ** ProcessScheduleInput: Schedule:Day:Interval=\"SCHEDULE DAY 97\", Blank Schedule Type Limits Name input -- will not be validated.\n   ** Warning ** ProcessScheduleInput: Schedule:Day:Interval=\"SCHEDULE DAY 98\", Blank Schedule Type Limits Name input -- will not be validated.\n   ** Warning ** ProcessScheduleInput: Schedule:Day:Interval=\"SCHEDULE DAY 99\", Blank Schedule Type Limits Name input -- will not be validated.\n   ** Warning ** ProcessScheduleInput: Schedule:Year=\"ECONOMIZER MAX OA FRACTION 100 PCT\", Blank Schedule Type Limits Name input -- will not be validated.\n   ** Warning ** ProcessScheduleInput: Schedule:Year=\"SCHEDULE RULESET 10\", Blank Schedule Type Limits Name input -- will not be validated.\n   ** Warning ** ProcessScheduleInput: Schedule:Year=\"SCHEDULE RULESET 100\", Blank Schedule Type Limits Name input -- will not be validated.\n   ** Warning ** ProcessScheduleInput: Schedule:Year=\"SCHEDULE RULESET 101\", Blank Schedule Type Limits Name input -- will not be validated.\n   ** Warning ** ProcessScheduleInput: Schedule:Year=\"SCHEDULE RULESET 102\", Blank Schedule Type Limits Name input -- will not be validated.\n   ** Warning ** ProcessScheduleInput: Schedule:Year=\"SCHEDULE RULESET 103\", Blank Schedule Type Limits Name input -- will not be validated.\n   ** Warning ** ProcessScheduleInput: Schedule:Year=\"SCHEDULE RULESET 104\", Blank Schedule Type Limits Name input -- will not be validated.\n   ** Warning ** ProcessScheduleInput: Schedule:Year=\"SCHEDULE RULESET 105\", Blank Schedule Type Limits Name input -- will not be validated.\n   ** Warning ** ProcessScheduleInput: Schedule:Year=\"SCHEDULE RULESET 106\", Blank Schedule Type Limits Name input -- will not be validated.\n   ** Warning ** ProcessScheduleInput: Schedule:Year=\"SCHEDULE RULESET 107\", Blank Schedule Type Limits Name input -- will not be validated.\n   ** Warning ** ProcessScheduleInput: Schedule:Year=\"SCHEDULE RULESET 108\", Blank Schedule Type Limits Name input -- will not be validated.\n   ** Warning ** ProcessScheduleInput: Schedule:Year=\"SCHEDULE RULESET 109\", Blank Schedule Type Limits Name input -- will not be validated.\n   ** Warning ** ProcessScheduleInput: Schedule:Year=\"SCHEDULE RULESET 11\", Blank Schedule Type Limits Name input -- will not be validated.\n   ** Warning ** ProcessScheduleInput: Schedule:Year=\"SCHEDULE RULESET 110\", Blank Schedule Type Limits Name input -- will not be validated.\n   ** Warning ** ProcessScheduleInput: Schedule:Year=\"SCHEDULE RULESET 111\", Blank Schedule Type Limits Name input -- will not be validated.\n   ** Warning ** ProcessScheduleInput: Schedule:Year=\"SCHEDULE RULESET 112\", Blank Schedule Type Limits Name input -- will not be validated.\n   ** Warning ** ProcessScheduleInput: Schedule:Year=\"SCHEDULE RULESET 113\", Blank Schedule Type Limits Name input -- will not be validated.\n   ** Warning ** ProcessScheduleInput: Schedule:Year=\"SCHEDULE RULESET 114\", Blank Schedule Type Limits Name input -- will not be validated.\n   ** Warning ** ProcessScheduleInput: Schedule:Year=\"SCHEDULE RULESET 115\", Blank Schedule Type Limits Name input -- will not be validated.\n   ** Warning ** ProcessScheduleInput: Schedule:Year=\"SCHEDULE RULESET 116\", Blank Schedule Type Limits Name input -- will not be validated.\n   ** Warning ** ProcessScheduleInput: Schedule:Year=\"SCHEDULE RULESET 117\", Blank Schedule Type Limits Name input -- will not be validated.\n   ** Warning ** ProcessScheduleInput: Schedule:Year=\"SCHEDULE RULESET 118\", Blank Schedule Type Limits Name input -- will not be validated.\n   ** Warning ** ProcessScheduleInput: Schedule:Year=\"SCHEDULE RULESET 119\", Blank Schedule Type Limits Name input -- will not be validated.\n   ** Warning ** ProcessScheduleInput: Schedule:Year=\"SCHEDULE RULESET 12\", Blank Schedule Type Limits Name input -- will not be validated.\n   ** Warning ** ProcessScheduleInput: Schedule:Year=\"SCHEDULE RULESET 120\", Blank Schedule Type Limits Name input -- will not be validated.\n   ** Warning ** ProcessScheduleInput: Schedule:Year=\"SCHEDULE RULESET 121\", Blank Schedule Type Limits Name input -- will not be validated.\n   ** Warning ** ProcessScheduleInput: Schedule:Year=\"SCHEDULE RULESET 122\", Blank Schedule Type Limits Name input -- will not be validated.\n   ** Warning ** ProcessScheduleInput: Schedule:Year=\"SCHEDULE RULESET 123\", Blank Schedule Type Limits Name input -- will not be validated.\n   ** Warning ** ProcessScheduleInput: Schedule:Year=\"SCHEDULE RULESET 124\", Blank Schedule Type Limits Name input -- will not be validated.\n   ** Warning ** ProcessScheduleInput: Schedule:Year=\"SCHEDULE RULESET 125\", Blank Schedule Type Limits Name input -- will not be validated.\n   ** Warning ** ProcessScheduleInput: Schedule:Year=\"SCHEDULE RULESET 126\", Blank Schedule Type Limits Name input -- will not be validated.\n   ** Warning ** ProcessScheduleInput: Schedule:Year=\"SCHEDULE RULESET 127\", Blank Schedule Type Limits Name input -- will not be validated.\n   ** Warning ** ProcessScheduleInput: Schedule:Year=\"SCHEDULE RULESET 128\", Blank Schedule Type Limits Name input -- will not be validated.\n   ** Warning ** ProcessScheduleInput: Schedule:Year=\"SCHEDULE RULESET 129\", Blank Schedule Type Limits Name input -- will not be validated.\n   ** Warning ** ProcessScheduleInput: Schedule:Year=\"SCHEDULE RULESET 13\", Blank Schedule Type Limits Name input -- will not be validated.\n   ** Warning ** ProcessScheduleInput: Schedule:Year=\"SCHEDULE RULESET 130\", Blank Schedule Type Limits Name input -- will not be validated.\n   ** Warning ** ProcessScheduleInput: Schedule:Year=\"SCHEDULE RULESET 131\", Blank Schedule Type Limits Name input -- will not be validated.\n   ** Warning ** ProcessScheduleInput: Schedule:Year=\"SCHEDULE RULESET 132\", Blank Schedule Type Limits Name input -- will not be validated.\n   ** Warning ** ProcessScheduleInput: Schedule:Year=\"SCHEDULE RULESET 133\", Blank Schedule Type Limits Name input -- will not be validated.\n   ** Warning ** ProcessScheduleInput: Schedule:Year=\"SCHEDULE RULESET 134\", Blank Schedule Type Limits Name input -- will not be validated.\n   ** Warning ** ProcessScheduleInput: Schedule:Year=\"SCHEDULE RULESET 135\", Blank Schedule Type Limits Name input -- will not be validated.\n   ** Warning ** ProcessScheduleInput: Schedule:Year=\"SCHEDULE RULESET 136\", Blank Schedule Type Limits Name input -- will not be validated.\n   ** Warning ** ProcessScheduleInput: Schedule:Year=\"SCHEDULE RULESET 137\", Blank Schedule Type Limits Name input -- will not be validated.\n   ** Warning ** ProcessScheduleInput: Schedule:Year=\"SCHEDULE RULESET 138\", Blank Schedule Type Limits Name input -- will not be validated.\n   ** Warning ** ProcessScheduleInput: Schedule:Year=\"SCHEDULE RULESET 139\", Blank Schedule Type Limits Name input -- will not be validated.\n   ** Warning ** ProcessScheduleInput: Schedule:Year=\"SCHEDULE RULESET 14\", Blank Schedule Type Limits Name input -- will not be validated.\n   ** Warning ** ProcessScheduleInput: Schedule:Year=\"SCHEDULE RULESET 140\", Blank Schedule Type Limits Name input -- will not be validated.\n   ** Warning ** ProcessScheduleInput: Schedule:Year=\"SCHEDULE RULESET 141\", Blank Schedule Type Limits Name input -- will not be validated.\n   ** Warning ** ProcessScheduleInput: Schedule:Year=\"SCHEDULE RULESET 142\", Blank Schedule Type Limits Name input -- will not be validated.\n   ** Warning ** ProcessScheduleInput: Schedule:Year=\"SCHEDULE RULESET 143\", Blank Schedule Type Limits Name input -- will not be validated.\n   ** Warning ** ProcessScheduleInput: Schedule:Year=\"SCHEDULE RULESET 144\", Blank Schedule Type Limits Name input -- will not be validated.\n   ** Warning ** ProcessScheduleInput: Schedule:Year=\"SCHEDULE RULESET 145\", Blank Schedule Type Limits Name input -- will not be validated.\n   ** Warning ** ProcessScheduleInput: Schedule:Year=\"SCHEDULE RULESET 146\", Blank Schedule Type Limits Name input -- will not be validated.\n   ** Warning ** ProcessScheduleInput: Schedule:Year=\"SCHEDULE RULESET 15\", Blank Schedule Type Limits Name input -- will not be validated.\n   ** Warning ** ProcessScheduleInput: Schedule:Year=\"SCHEDULE RULESET 16\", Blank Schedule Type Limits Name input -- will not be validated.\n   ** Warning ** ProcessScheduleInput: Schedule:Year=\"SCHEDULE RULESET 17\", Blank Schedule Type Limits Name input -- will not be validated.\n   ** Warning ** ProcessScheduleInput: Schedule:Year=\"SCHEDULE RULESET 18\", Blank Schedule Type Limits Name input -- will not be validated.\n   ** Warning ** ProcessScheduleInput: Schedule:Year=\"SCHEDULE RULESET 19\", Blank Schedule Type Limits Name input -- will not be validated.\n   ** Warning ** ProcessScheduleInput: Schedule:Year=\"SCHEDULE RULESET 20\", Blank Schedule Type Limits Name input -- will not be validated.\n   ** Warning ** ProcessScheduleInput: Schedule:Year=\"SCHEDULE RULESET 21\", Blank Schedule Type Limits Name input -- will not be validated.\n   ** Warning ** ProcessScheduleInput: Schedule:Year=\"SCHEDULE RULESET 22\", Blank Schedule Type Limits Name input -- will not be validated.\n   ** Warning ** ProcessScheduleInput: Schedule:Year=\"SCHEDULE RULESET 23\", Blank Schedule Type Limits Name input -- will not be validated.\n   ** Warning ** ProcessScheduleInput: Schedule:Year=\"SCHEDULE RULESET 24\", Blank Schedule Type Limits Name input -- will not be validated.\n   ** Warning ** ProcessScheduleInput: Schedule:Year=\"SCHEDULE RULESET 25\", Blank Schedule Type Limits Name input -- will not be validated.\n   ** Warning ** ProcessScheduleInput: Schedule:Year=\"SCHEDULE RULESET 26\", Blank Schedule Type Limits Name input -- will not be validated.\n   ** Warning ** ProcessScheduleInput: Schedule:Year=\"SCHEDULE RULESET 27\", Blank Schedule Type Limits Name input -- will not be validated.\n   ** Warning ** ProcessScheduleInput: Schedule:Year=\"SCHEDULE RULESET 28\", Blank Schedule Type Limits Name input -- will not be validated.\n   ** Warning ** ProcessScheduleInput: Schedule:Year=\"SCHEDULE RULESET 29\", Blank Schedule Type Limits Name input -- will not be validated.\n   ** Warning ** ProcessScheduleInput: Schedule:Year=\"SCHEDULE RULESET 3\", Blank Schedule Type Limits Name input -- will not be validated.\n   ** Warning ** ProcessScheduleInput: Schedule:Year=\"SCHEDULE RULESET 30\", Blank Schedule Type Limits Name input -- will not be validated.\n   ** Warning ** ProcessScheduleInput: Schedule:Year=\"SCHEDULE RULESET 31\", Blank Schedule Type Limits Name input -- will not be validated.\n   ** Warning ** ProcessScheduleInput: Schedule:Year=\"SCHEDULE RULESET 32\", Blank Schedule Type Limits Name input -- will not be validated.\n   ** Warning ** ProcessScheduleInput: Schedule:Year=\"SCHEDULE RULESET 33\", Blank Schedule Type Limits Name input -- will not be validated.\n   ** Warning ** ProcessScheduleInput: Schedule:Year=\"SCHEDULE RULESET 34\", Blank Schedule Type Limits Name input -- will not be validated.\n   ** Warning ** ProcessScheduleInput: Schedule:Year=\"SCHEDULE RULESET 35\", Blank Schedule Type Limits Name input -- will not be validated.\n   ** Warning ** ProcessScheduleInput: Schedule:Year=\"SCHEDULE RULESET 36\", Blank Schedule Type Limits Name input -- will not be validated.\n   ** Warning ** ProcessScheduleInput: Schedule:Year=\"SCHEDULE RULESET 37\", Blank Schedule Type Limits Name input -- will not be validated.\n   ** Warning ** ProcessScheduleInput: Schedule:Year=\"SCHEDULE RULESET 38\", Blank Schedule Type Limits Name input -- will not be validated.\n   ** Warning ** ProcessScheduleInput: Schedule:Year=\"SCHEDULE RULESET 39\", Blank Schedule Type Limits Name input -- will not be validated.\n   ** Warning ** ProcessScheduleInput: Schedule:Year=\"SCHEDULE RULESET 4\", Blank Schedule Type Limits Name input -- will not be validated.\n   ** Warning ** ProcessScheduleInput: Schedule:Year=\"SCHEDULE RULESET 40\", Blank Schedule Type Limits Name input -- will not be validated.\n   ** Warning ** ProcessScheduleInput: Schedule:Year=\"SCHEDULE RULESET 41\", Blank Schedule Type Limits Name input -- will not be validated.\n   ** Warning ** ProcessScheduleInput: Schedule:Year=\"SCHEDULE RULESET 42\", Blank Schedule Type Limits Name input -- will not be validated.\n   ** Warning ** ProcessScheduleInput: Schedule:Year=\"SCHEDULE RULESET 43\", Blank Schedule Type Limits Name input -- will not be validated.\n   ** Warning ** ProcessScheduleInput: Schedule:Year=\"SCHEDULE RULESET 44\", Blank Schedule Type Limits Name input -- will not be validated.\n   ** Warning ** ProcessScheduleInput: Schedule:Year=\"SCHEDULE RULESET 45\", Blank Schedule Type Limits Name input -- will not be validated.\n   ** Warning ** ProcessScheduleInput: Schedule:Year=\"SCHEDULE RULESET 46\", Blank Schedule Type Limits Name input -- will not be validated.\n   ** Warning ** ProcessScheduleInput: Schedule:Year=\"SCHEDULE RULESET 47\", Blank Schedule Type Limits Name input -- will not be validated.\n   ** Warning ** ProcessScheduleInput: Schedule:Year=\"SCHEDULE RULESET 48\", Blank Schedule Type Limits Name input -- will not be validated.\n   ** Warning ** ProcessScheduleInput: Schedule:Year=\"SCHEDULE RULESET 49\", Blank Schedule Type Limits Name input -- will not be validated.\n   ** Warning ** ProcessScheduleInput: Schedule:Year=\"SCHEDULE RULESET 5\", Blank Schedule Type Limits Name input -- will not be validated.\n   ** Warning ** ProcessScheduleInput: Schedule:Year=\"SCHEDULE RULESET 50\", Blank Schedule Type Limits Name input -- will not be validated.\n   ** Warning ** ProcessScheduleInput: Schedule:Year=\"SCHEDULE RULESET 51\", Blank Schedule Type Limits Name input -- will not be validated.\n   ** Warning ** ProcessScheduleInput: Schedule:Year=\"SCHEDULE RULESET 52\", Blank Schedule Type Limits Name input -- will not be validated.\n   ** Warning ** ProcessScheduleInput: Schedule:Year=\"SCHEDULE RULESET 53\", Blank Schedule Type Limits Name input -- will not be validated.\n   ** Warning ** ProcessScheduleInput: Schedule:Year=\"SCHEDULE RULESET 54\", Blank Schedule Type Limits Name input -- will not be validated.\n   ** Warning ** ProcessScheduleInput: Schedule:Year=\"SCHEDULE RULESET 55\", Blank Schedule Type Limits Name input -- will not be validated.\n   ** Warning ** ProcessScheduleInput: Schedule:Year=\"SCHEDULE RULESET 56\", Blank Schedule Type Limits Name input -- will not be validated.\n   ** Warning ** ProcessScheduleInput: Schedule:Year=\"SCHEDULE RULESET 57\", Blank Schedule Type Limits Name input -- will not be validated.\n   ** Warning ** ProcessScheduleInput: Schedule:Year=\"SCHEDULE RULESET 58\", Blank Schedule Type Limits Name input -- will not be validated.\n   ** Warning ** ProcessScheduleInput: Schedule:Year=\"SCHEDULE RULESET 59\", Blank Schedule Type Limits Name input -- will not be validated.\n   ** Warning ** ProcessScheduleInput: Schedule:Year=\"SCHEDULE RULESET 6\", Blank Schedule Type Limits Name input -- will not be validated.\n   ** Warning ** ProcessScheduleInput: Schedule:Year=\"SCHEDULE RULESET 60\", Blank Schedule Type Limits Name input -- will not be validated.\n   ** Warning ** ProcessScheduleInput: Schedule:Year=\"SCHEDULE RULESET 61\", Blank Schedule Type Limits Name input -- will not be validated.\n   ** Warning ** ProcessScheduleInput: Schedule:Year=\"SCHEDULE RULESET 62\", Blank Schedule Type Limits Name input -- will not be validated.\n   ** Warning ** ProcessScheduleInput: Schedule:Year=\"SCHEDULE RULESET 63\", Blank Schedule Type Limits Name input -- will not be validated.\n   ** Warning ** ProcessScheduleInput: Schedule:Year=\"SCHEDULE RULESET 64\", Blank Schedule Type Limits Name input -- will not be validated.\n   ** Warning ** ProcessScheduleInput: Schedule:Year=\"SCHEDULE RULESET 65\", Blank Schedule Type Limits Name input -- will not be validated.\n   ** Warning ** ProcessScheduleInput: Schedule:Year=\"SCHEDULE RULESET 66\", Blank Schedule Type Limits Name input -- will not be validated.\n   ** Warning ** ProcessScheduleInput: Schedule:Year=\"SCHEDULE RULESET 67\", Blank Schedule Type Limits Name input -- will not be validated.\n   ** Warning ** ProcessScheduleInput: Schedule:Year=\"SCHEDULE RULESET 68\", Blank Schedule Type Limits Name input -- will not be validated.\n   ** Warning ** ProcessScheduleInput: Schedule:Year=\"SCHEDULE RULESET 69\", Blank Schedule Type Limits Name input -- will not be validated.\n   ** Warning ** ProcessScheduleInput: Schedule:Year=\"SCHEDULE RULESET 7\", Blank Schedule Type Limits Name input -- will not be validated.\n   ** Warning ** ProcessScheduleInput: Schedule:Year=\"SCHEDULE RULESET 70\", Blank Schedule Type Limits Name input -- will not be validated.\n   ** Warning ** ProcessScheduleInput: Schedule:Year=\"SCHEDULE RULESET 71\", Blank Schedule Type Limits Name input -- will not be validated.\n   ** Warning ** ProcessScheduleInput: Schedule:Year=\"SCHEDULE RULESET 72\", Blank Schedule Type Limits Name input -- will not be validated.\n   ** Warning ** ProcessScheduleInput: Schedule:Year=\"SCHEDULE RULESET 73\", Blank Schedule Type Limits Name input -- will not be validated.\n   ** Warning ** ProcessScheduleInput: Schedule:Year=\"SCHEDULE RULESET 74\", Blank Schedule Type Limits Name input -- will not be validated.\n   ** Warning ** ProcessScheduleInput: Schedule:Year=\"SCHEDULE RULESET 75\", Blank Schedule Type Limits Name input -- will not be validated.\n   ** Warning ** ProcessScheduleInput: Schedule:Year=\"SCHEDULE RULESET 76\", Blank Schedule Type Limits Name input -- will not be validated.\n   ** Warning ** ProcessScheduleInput: Schedule:Year=\"SCHEDULE RULESET 77\", Blank Schedule Type Limits Name input -- will not be validated.\n   ** Warning ** ProcessScheduleInput: Schedule:Year=\"SCHEDULE RULESET 78\", Blank Schedule Type Limits Name input -- will not be validated.\n   ** Warning ** ProcessScheduleInput: Schedule:Year=\"SCHEDULE RULESET 79\", Blank Schedule Type Limits Name input -- will not be validated.\n   ** Warning ** ProcessScheduleInput: Schedule:Year=\"SCHEDULE RULESET 8\", Blank Schedule Type Limits Name input -- will not be validated.\n   ** Warning ** ProcessScheduleInput: Schedule:Year=\"SCHEDULE RULESET 80\", Blank Schedule Type Limits Name input -- will not be validated.\n   ** Warning ** ProcessScheduleInput: Schedule:Year=\"SCHEDULE RULESET 81\", Blank Schedule Type Limits Name input -- will not be validated.\n   ** Warning ** ProcessScheduleInput: Schedule:Year=\"SCHEDULE RULESET 82\", Blank Schedule Type Limits Name input -- will not be validated.\n   ** Warning ** ProcessScheduleInput: Schedule:Year=\"SCHEDULE RULESET 83\", Blank Schedule Type Limits Name input -- will not be validated.\n   ** Warning ** ProcessScheduleInput: Schedule:Year=\"SCHEDULE RULESET 84\", Blank Schedule Type Limits Name input -- will not be validated.\n   ** Warning ** ProcessScheduleInput: Schedule:Year=\"SCHEDULE RULESET 85\", Blank Schedule Type Limits Name input -- will not be validated.\n   ** Warning ** ProcessScheduleInput: Schedule:Year=\"SCHEDULE RULESET 86\", Blank Schedule Type Limits Name input -- will not be validated.\n   ** Warning ** ProcessScheduleInput: Schedule:Year=\"SCHEDULE RULESET 87\", Blank Schedule Type Limits Name input -- will not be validated.\n   ** Warning ** ProcessScheduleInput: Schedule:Year=\"SCHEDULE RULESET 88\", Blank Schedule Type Limits Name input -- will not be validated.\n   ** Warning ** ProcessScheduleInput: Schedule:Year=\"SCHEDULE RULESET 89\", Blank Schedule Type Limits Name input -- will not be validated.\n   ** Warning ** ProcessScheduleInput: Schedule:Year=\"SCHEDULE RULESET 9\", Blank Schedule Type Limits Name input -- will not be validated.\n   ** Warning ** ProcessScheduleInput: Schedule:Year=\"SCHEDULE RULESET 90\", Blank Schedule Type Limits Name input -- will not be validated.\n   ** Warning ** ProcessScheduleInput: Schedule:Year=\"SCHEDULE RULESET 91\", Blank Schedule Type Limits Name input -- will not be validated.\n   ** Warning ** ProcessScheduleInput: Schedule:Year=\"SCHEDULE RULESET 92\", Blank Schedule Type Limits Name input -- will not be validated.\n   ** Warning ** ProcessScheduleInput: Schedule:Year=\"SCHEDULE RULESET 93\", Blank Schedule Type Limits Name input -- will not be validated.\n   ** Warning ** ProcessScheduleInput: Schedule:Year=\"SCHEDULE RULESET 94\", Blank Schedule Type Limits Name input -- will not be validated.\n   ** Warning ** ProcessScheduleInput: Schedule:Year=\"SCHEDULE RULESET 95\", Blank Schedule Type Limits Name input -- will not be validated.\n   ** Warning ** ProcessScheduleInput: Schedule:Year=\"SCHEDULE RULESET 96\", Blank Schedule Type Limits Name input -- will not be validated.\n   ** Warning ** ProcessScheduleInput: Schedule:Year=\"SCHEDULE RULESET 97\", Blank Schedule Type Limits Name input -- will not be validated.\n   ** Warning ** ProcessScheduleInput: Schedule:Year=\"SCHEDULE RULESET 98\", Blank Schedule Type Limits Name input -- will not be validated.\n   ** Warning ** ProcessScheduleInput: Schedule:Year=\"SCHEDULE RULESET 99\", Blank Schedule Type Limits Name input -- will not be validated.\n   ** Warning ** ProcessScheduleInput: Schedule:Constant=\"ALWAYS OFF DISCRETE\", Blank Schedule Type Limits Name input -- will not be validated.\n   ** Warning ** ProcessScheduleInput: Schedule:Constant=\"ALWAYS ON CONTINUOUS\", Blank Schedule Type Limits Name input -- will not be validated.\n   ** Warning ** CheckUsedConstructions: There are 24 nominally unused constructions in input.\n   **   ~~~   ** For explicit details on each unused construction, use Output:Diagnostics,DisplayExtraWarnings;\n   ** Warning ** GetInternalHeatGains: People Combination of ZoneList and Object Name generate a name too long.\n   **   ~~~   ** Object Name=\"SPACE FUNCTION ELECTRICAL/MECHANICAL-SCH-F PEOPLE\".\n   **   ~~~   ** ZoneList/Zone Name=\"SP-MECHANICALROOMFLR1 SYS-1 FLR-2 SCH-F HPLCMT-SOUTH ZN\".\n   **   ~~~   ** Item length=[104] > Maximum Length=[100]. You may need to shorten the names.\n   **   ~~~   ** Shortening the Object Name by [5] characters will assure uniqueness for this ZoneList.\n   **   ~~~   ** name that will be used (may be needed in reporting)=\"SP-MECHANICALROOMFLR1 SYS-1 FLR-2 SCH-F HPLCMT-SOUTH ZN SPACE FUNCTION ELECTRICAL/MECHANICAL-SCH-F PEOPLE\".\n   ** Warning ** GetInternalHeatGains: People Combination of ZoneList and Object Name generate a name too long.\n   **   ~~~   ** Object Name=\"SPACE FUNCTION ELECTRICAL/MECHANICAL-SCH-F PEOPLE\".\n   **   ~~~   ** ZoneList/Zone Name=\"SP-MEETINGROOMFLR1 SYS-3 FLR-2 SCH-F HPLCMT-SOUTH ZN\".\n   **   ~~~   ** Item length=[101] > Maximum Length=[100]. You may need to shorten the names.\n   **   ~~~   ** Shortening the Object Name by [5] characters will assure uniqueness for this ZoneList.\n   **   ~~~   ** name that will be used (may be needed in reporting)=\"SP-MEETINGROOMFLR1 SYS-3 FLR-2 SCH-F HPLCMT-SOUTH ZN SPACE FUNCTION ELECTRICAL/MECHANICAL-SCH-F PEOPLE\".\n   ** Warning ** GetInternalHeatGains: Lights Combination of ZoneList and Object Name generate a name too long.\n   **   ~~~   ** Object Name=\"SPACE FUNCTION ELECTRICAL/MECHANICAL-SCH-F LIGHTS\".\n   **   ~~~   ** ZoneList/Zone Name=\"SP-MECHANICALROOMFLR1 SYS-1 FLR-2 SCH-F HPLCMT-SOUTH ZN\".\n   **   ~~~   ** Item length=[104] > Maximum Length=[100]. You may need to shorten the names.\n   **   ~~~   ** Shortening the Object Name by [5] characters will assure uniqueness for this ZoneList.\n   **   ~~~   ** name that will be used (may be needed in reporting)=\"SP-MECHANICALROOMFLR1 SYS-1 FLR-2 SCH-F HPLCMT-SOUTH ZN SPACE FUNCTION ELECTRICAL/MECHANICAL-SCH-F LIGHTS\".\n   ** Warning ** GetInternalHeatGains: Lights Combination of ZoneList and Object Name generate a name too long.\n   **   ~~~   ** Object Name=\"SPACE FUNCTION ELECTRICAL/MECHANICAL-SCH-F LIGHTS\".\n   **   ~~~   ** ZoneList/Zone Name=\"SP-MEETINGROOMFLR1 SYS-3 FLR-2 SCH-F HPLCMT-SOUTH ZN\".\n   **   ~~~   ** Item length=[101] > Maximum Length=[100]. You may need to shorten the names.\n   **   ~~~   ** Shortening the Object Name by [5] characters will assure uniqueness for this ZoneList.\n   **   ~~~   ** name that will be used (may be needed in reporting)=\"SP-MEETINGROOMFLR1 SYS-3 FLR-2 SCH-F HPLCMT-SOUTH ZN SPACE FUNCTION ELECTRICAL/MECHANICAL-SCH-F LIGHTS\".\n   ** Warning ** GetInternalHeatGains: ElectricEquipment Combination of ZoneList and Object Name generate a name too long.\n   **   ~~~   ** Object Name=\"SPACE FUNCTION ELECTRICAL/MECHANICAL-SCH-F ELEC EQUIP\".\n   **   ~~~   ** ZoneList/Zone Name=\"SP-MECHANICALROOMFLR1 SYS-1 FLR-2 SCH-F HPLCMT-SOUTH ZN\".\n   **   ~~~   ** Item length=[108] > Maximum Length=[100]. You may need to shorten the names.\n   **   ~~~   ** Shortening the Object Name by [9] characters will assure uniqueness for this ZoneList.\n   **   ~~~   ** name that will be used (may be needed in reporting)=\"SP-MECHANICALROOMFLR1 SYS-1 FLR-2 SCH-F HPLCMT-SOUTH ZN SPACE FUNCTION ELECTRICAL/MECHANICAL-SCH-F ELEC EQUIP\".\n   ** Warning ** GetInternalHeatGains: ElectricEquipment Combination of ZoneList and Object Name generate a name too long.\n   **   ~~~   ** Object Name=\"SPACE FUNCTION ELECTRICAL/MECHANICAL-SCH-F ELEC EQUIP\".\n   **   ~~~   ** ZoneList/Zone Name=\"SP-MEETINGROOMFLR1 SYS-3 FLR-2 SCH-F HPLCMT-SOUTH ZN\".\n   **   ~~~   ** Item length=[105] > Maximum Length=[100]. You may need to shorten the names.\n   **   ~~~   ** Shortening the Object Name by [9] characters will assure uniqueness for this ZoneList.\n   **   ~~~   ** name that will be used (may be needed in reporting)=\"SP-MEETINGROOMFLR1 SYS-3 FLR-2 SCH-F HPLCMT-SOUTH ZN SPACE FUNCTION ELECTRICAL/MECHANICAL-SCH-F ELEC EQUIP\".\n   ** Warning ** GetInternalHeatGains: ElectricEquipment Combination of ZoneList and Object Name generate a name too long.\n   **   ~~~   ** Object Name=\"SPACE FUNCTION STORAGE AREA - OCCSENS ELEC EQUIP\".\n   **   ~~~   ** ZoneList/Zone Name=\"SP-FRONTSTORAGEFLR1 SYS-4 FLR-2 SCH-E HPLCMT-NORTH ZN\".\n   **   ~~~   ** Item length=[101] > Maximum Length=[100]. You may need to shorten the names.\n   **   ~~~   ** Shortening the Object Name by [2] characters will assure uniqueness for this ZoneList.\n   **   ~~~   ** name that will be used (may be needed in reporting)=\"SP-FRONTSTORAGEFLR1 SYS-4 FLR-2 SCH-E HPLCMT-NORTH ZN SPACE FUNCTION STORAGE AREA - OCCSENS ELEC EQUIP\".\n   ** Warning ** GetInternalHeatGains: ElectricEquipment Combination of ZoneList and Object Name generate a name too long.\n   **   ~~~   ** Object Name=\"SPACE FUNCTION STORAGE AREA - OCCSENS ELEC EQUIP\".\n   **   ~~~   ** ZoneList/Zone Name=\"SP-FRONTSTORAGEFLR2 SYS-4 FLR-1 SCH-E HPLCMT-NORTH ZN\".\n   **   ~~~   ** Item length=[101] > Maximum Length=[100]. You may need to shorten the names.\n   **   ~~~   ** Shortening the Object Name by [2] characters will assure uniqueness for this ZoneList.\n   **   ~~~   ** name that will be used (may be needed in reporting)=\"SP-FRONTSTORAGEFLR2 SYS-4 FLR-1 SCH-E HPLCMT-NORTH ZN SPACE FUNCTION STORAGE AREA - OCCSENS ELEC EQUIP\".\n   ** Warning ** GetInternalHeatGains: ElectricEquipment Combination of ZoneList and Object Name generate a name too long.\n   **   ~~~   ** Object Name=\"SPACE FUNCTION STORAGE AREA - OCCSENS ELEC EQUIP\".\n   **   ~~~   ** ZoneList/Zone Name=\"SP-FRONTSTORAGEFLR3 SYS-4 FLR-4 SCH-E HPLCMT-NORTH ZN\".\n   **   ~~~   ** Item length=[101] > Maximum Length=[100]. You may need to shorten the names.\n   **   ~~~   ** Shortening the Object Name by [2] characters will assure uniqueness for this ZoneList.\n   **   ~~~   ** name that will be used (may be needed in reporting)=\"SP-FRONTSTORAGEFLR3 SYS-4 FLR-4 SCH-E HPLCMT-NORTH ZN SPACE FUNCTION STORAGE AREA - OCCSENS ELEC EQUIP\".\n   ** Warning ** GetInternalHeatGains: ElectricEquipment Combination of ZoneList and Object Name generate a name too long.\n   **   ~~~   ** Object Name=\"SPACE FUNCTION STORAGE AREA - OCCSENS ELEC EQUIP\".\n   **   ~~~   ** ZoneList/Zone Name=\"SP-FRONTSTORAGEFLR4 SYS-4 FLR-3 SCH-E HPLCMT-NORTH ZN\".\n   **   ~~~   ** Item length=[101] > Maximum Length=[100]. You may need to shorten the names.\n   **   ~~~   ** Shortening the Object Name by [2] characters will assure uniqueness for this ZoneList.\n   **   ~~~   ** name that will be used (may be needed in reporting)=\"SP-FRONTSTORAGEFLR4 SYS-4 FLR-3 SCH-E HPLCMT-NORTH ZN SPACE FUNCTION STORAGE AREA - OCCSENS ELEC EQUIP\".\n   ** Warning ** Calculated design heating load for zone=SP-FRONTLOUNGEFLR1 SYS-3 FLR-2 SCH-H HPLCMT-SOUTH ZN is zero.\n   **   ~~~   ** Check Sizing:Zone and ZoneControl:Thermostat inputs.\n   ************* Beginning System Sizing Calculations\n   ** Warning ** GetDXCoils: Coil:Cooling:DX:SingleSpeed=\"COIL COOLING DX SINGLE SPEED 7 5KBTU/HR 11.0EER\", invalid\n   **   ~~~   ** ...Part Load Fraction Correlation Curve Name = DXCOOL-NECB2011-REF-COOLPLFFPLR 63 has out of range value.\n   **   ~~~   ** ...Curve maximum must be <= 1.0, curve max at PLR = 0.99 is 1.015\n   **   ~~~   ** ...Setting curve maximum to 1.0 and simulation continues.\n   ** Warning ** GetDXCoils: Coil:Cooling:DX:SingleSpeed=\"COIL COOLING DX SINGLE SPEED 38 5KBTU/HR 11.0EER\", invalid\n   **   ~~~   ** ...Part Load Fraction Correlation Curve Name = DXCOOL-NECB2011-REF-COOLPLFFPLR 31 has out of range value.\n   **   ~~~   ** ...Curve maximum must be <= 1.0, curve max at PLR = 0.99 is 1.015\n   **   ~~~   ** ...Setting curve maximum to 1.0 and simulation continues.\n   ** Warning ** GetDXCoils: Coil:Cooling:DX:SingleSpeed=\"COIL COOLING DX SINGLE SPEED 26 12KBTU/HR 9.9EER\", invalid\n   **   ~~~   ** ...Part Load Fraction Correlation Curve Name = DXCOOL-NECB2011-REF-COOLPLFFPLR 18 has out of range value.\n   **   ~~~   ** ...Curve maximum must be <= 1.0, curve max at PLR = 0.99 is 1.015\n   **   ~~~   ** ...Setting curve maximum to 1.0 and simulation continues.\n   ** Warning ** GetDXCoils: Coil:Cooling:DX:SingleSpeed=\"COIL COOLING DX SINGLE SPEED 17 1KBTU/HR 11.0EER\", invalid\n   **   ~~~   ** ...Part Load Fraction Correlation Curve Name = DXCOOL-NECB2011-REF-COOLPLFFPLR 8 has out of range value.\n   **   ~~~   ** ...Curve maximum must be <= 1.0, curve max at PLR = 0.99 is 1.015\n   **   ~~~   ** ...Setting curve maximum to 1.0 and simulation continues.\n   ** Warning ** GetDXCoils: Coil:Cooling:DX:SingleSpeed=\"COIL COOLING DX SINGLE SPEED 18 1KBTU/HR 11.0EER\", invalid\n   **   ~~~   ** ...Part Load Fraction Correlation Curve Name = DXCOOL-NECB2011-REF-COOLPLFFPLR 9 has out of range value.\n   **   ~~~   ** ...Curve maximum must be <= 1.0, curve max at PLR = 0.99 is 1.015\n   **   ~~~   ** ...Setting curve maximum to 1.0 and simulation continues.\n   ** Warning ** GetDXCoils: Coil:Cooling:DX:SingleSpeed=\"COIL COOLING DX SINGLE SPEED 19 2KBTU/HR 11.0EER\", invalid\n   **   ~~~   ** ...Part Load Fraction Correlation Curve Name = DXCOOL-NECB2011-REF-COOLPLFFPLR 10 has out of range value.\n   **   ~~~   ** ...Curve maximum must be <= 1.0, curve max at PLR = 0.99 is 1.015\n   **   ~~~   ** ...Setting curve maximum to 1.0 and simulation continues.\n   ** Warning ** GetDXCoils: Coil:Cooling:DX:SingleSpeed=\"COIL COOLING DX SINGLE SPEED 14 2KBTU/HR 11.0EER\", invalid\n   **   ~~~   ** ...Part Load Fraction Correlation Curve Name = DXCOOL-NECB2011-REF-COOLPLFFPLR 5 has out of range value.\n   **   ~~~   ** ...Curve maximum must be <= 1.0, curve max at PLR = 0.99 is 1.015\n   **   ~~~   ** ...Setting curve maximum to 1.0 and simulation continues.\n   ** Warning ** GetDXCoils: Coil:Cooling:DX:SingleSpeed=\"COIL COOLING DX SINGLE SPEED 15 2KBTU/HR 11.0EER\", invalid\n   **   ~~~   ** ...Part Load Fraction Correlation Curve Name = DXCOOL-NECB2011-REF-COOLPLFFPLR 6 has out of range value.\n   **   ~~~   ** ...Curve maximum must be <= 1.0, curve max at PLR = 0.99 is 1.015\n   **   ~~~   ** ...Setting curve maximum to 1.0 and simulation continues.\n   ** Warning ** GetDXCoils: Coil:Cooling:DX:SingleSpeed=\"COIL COOLING DX SINGLE SPEED 9 2KBTU/HR 11.0EER\", invalid\n   **   ~~~   ** ...Part Load Fraction Correlation Curve Name = DXCOOL-NECB2011-REF-COOLPLFFPLR 65 has out of range value.\n   **   ~~~   ** ...Curve maximum must be <= 1.0, curve max at PLR = 0.99 is 1.015\n   **   ~~~   ** ...Setting curve maximum to 1.0 and simulation continues.\n   ** Warning ** GetDXCoils: Coil:Cooling:DX:SingleSpeed=\"COIL COOLING DX SINGLE SPEED 11 7KBTU/HR 11.0EER\", invalid\n   **   ~~~   ** ...Part Load Fraction Correlation Curve Name = DXCOOL-NECB2011-REF-COOLPLFFPLR 2 has out of range value.\n   **   ~~~   ** ...Curve maximum must be <= 1.0, curve max at PLR = 0.99 is 1.015\n   **   ~~~   ** ...Setting curve maximum to 1.0 and simulation continues.\n   ** Warning ** GetDXCoils: Coil:Cooling:DX:SingleSpeed=\"COIL COOLING DX SINGLE SPEED 13 5KBTU/HR 11.0EER\", invalid\n   **   ~~~   ** ...Part Load Fraction Correlation Curve Name = DXCOOL-NECB2011-REF-COOLPLFFPLR 4 has out of range value.\n   **   ~~~   ** ...Curve maximum must be <= 1.0, curve max at PLR = 0.99 is 1.015\n   **   ~~~   ** ...Setting curve maximum to 1.0 and simulation continues.\n   ** Warning ** GetDXCoils: Coil:Cooling:DX:SingleSpeed=\"COIL COOLING DX SINGLE SPEED 12 6KBTU/HR 11.0EER\", invalid\n   **   ~~~   ** ...Part Load Fraction Correlation Curve Name = DXCOOL-NECB2011-REF-COOLPLFFPLR 3 has out of range value.\n   **   ~~~   ** ...Curve maximum must be <= 1.0, curve max at PLR = 0.99 is 1.015\n   **   ~~~   ** ...Setting curve maximum to 1.0 and simulation continues.\n   ** Warning ** GetDXCoils: Coil:Cooling:DX:SingleSpeed=\"COIL COOLING DX SINGLE SPEED 10 2KBTU/HR 11.0EER\", invalid\n   **   ~~~   ** ...Part Load Fraction Correlation Curve Name = DXCOOL-NECB2011-REF-COOLPLFFPLR 1 has out of range value.\n   **   ~~~   ** ...Curve maximum must be <= 1.0, curve max at PLR = 0.99 is 1.015\n   **   ~~~   ** ...Setting curve maximum to 1.0 and simulation continues.\n   ** Warning ** GetDXCoils: Coil:Cooling:DX:SingleSpeed=\"COIL COOLING DX SINGLE SPEED 5 2KBTU/HR 11.0EER\", invalid\n   **   ~~~   ** ...Part Load Fraction Correlation Curve Name = DXCOOL-NECB2011-REF-COOLPLFFPLR 44 has out of range value.\n   **   ~~~   ** ...Curve maximum must be <= 1.0, curve max at PLR = 0.99 is 1.015\n   **   ~~~   ** ...Setting curve maximum to 1.0 and simulation continues.\n   ** Warning ** GetDXCoils: Coil:Cooling:DX:SingleSpeed=\"COIL COOLING DX SINGLE SPEED 6 6KBTU/HR 11.0EER\", invalid\n   **   ~~~   ** ...Part Load Fraction Correlation Curve Name = DXCOOL-NECB2011-REF-COOLPLFFPLR 55 has out of range value.\n   **   ~~~   ** ...Curve maximum must be <= 1.0, curve max at PLR = 0.99 is 1.015\n   **   ~~~   ** ...Setting curve maximum to 1.0 and simulation continues.\n   ** Warning ** GetDXCoils: Coil:Cooling:DX:SingleSpeed=\"COIL COOLING DX SINGLE SPEED 3 2KBTU/HR 11.0EER\", invalid\n   **   ~~~   ** ...Part Load Fraction Correlation Curve Name = DXCOOL-NECB2011-REF-COOLPLFFPLR 22 has out of range value.\n   **   ~~~   ** ...Curve maximum must be <= 1.0, curve max at PLR = 0.99 is 1.015\n   **   ~~~   ** ...Setting curve maximum to 1.0 and simulation continues.\n   ** Warning ** GetDXCoils: Coil:Cooling:DX:SingleSpeed=\"COIL COOLING DX SINGLE SPEED 2 7KBTU/HR 11.0EER\", invalid\n   **   ~~~   ** ...Part Load Fraction Correlation Curve Name = DXCOOL-NECB2011-REF-COOLPLFFPLR 11 has out of range value.\n   **   ~~~   ** ...Curve maximum must be <= 1.0, curve max at PLR = 0.99 is 1.015\n   **   ~~~   ** ...Setting curve maximum to 1.0 and simulation continues.\n   ** Warning ** GetDXCoils: Coil:Cooling:DX:SingleSpeed=\"COIL COOLING DX SINGLE SPEED 4 2KBTU/HR 11.0EER\", invalid\n   **   ~~~   ** ...Part Load Fraction Correlation Curve Name = DXCOOL-NECB2011-REF-COOLPLFFPLR 33 has out of range value.\n   **   ~~~   ** ...Curve maximum must be <= 1.0, curve max at PLR = 0.99 is 1.015\n   **   ~~~   ** ...Setting curve maximum to 1.0 and simulation continues.\n   ** Warning ** GetDXCoils: Coil:Cooling:DX:SingleSpeed=\"COIL COOLING DX SINGLE SPEED 40 2KBTU/HR 11.0EER\", invalid\n   **   ~~~   ** ...Part Load Fraction Correlation Curve Name = DXCOOL-NECB2011-REF-COOLPLFFPLR 34 has out of range value.\n   **   ~~~   ** ...Curve maximum must be <= 1.0, curve max at PLR = 0.99 is 1.015\n   **   ~~~   ** ...Setting curve maximum to 1.0 and simulation continues.\n   ** Warning ** GetDXCoils: Coil:Cooling:DX:SingleSpeed=\"COIL COOLING DX SINGLE SPEED 41 6KBTU/HR 11.0EER\", invalid\n   **   ~~~   ** ...Part Load Fraction Correlation Curve Name = DXCOOL-NECB2011-REF-COOLPLFFPLR 35 has out of range value.\n   **   ~~~   ** ...Curve maximum must be <= 1.0, curve max at PLR = 0.99 is 1.015\n   **   ~~~   ** ...Setting curve maximum to 1.0 and simulation continues.\n   ** Warning ** GetDXCoils: Coil:Cooling:DX:SingleSpeed=\"COIL COOLING DX SINGLE SPEED 43 5KBTU/HR 11.0EER\", invalid\n   **   ~~~   ** ...Part Load Fraction Correlation Curve Name = DXCOOL-NECB2011-REF-COOLPLFFPLR 37 has out of range value.\n   **   ~~~   ** ...Curve maximum must be <= 1.0, curve max at PLR = 0.99 is 1.015\n   **   ~~~   ** ...Setting curve maximum to 1.0 and simulation continues.\n   ** Warning ** GetDXCoils: Coil:Cooling:DX:SingleSpeed=\"COIL COOLING DX SINGLE SPEED 44 6KBTU/HR 11.0EER\", invalid\n   **   ~~~   ** ...Part Load Fraction Correlation Curve Name = DXCOOL-NECB2011-REF-COOLPLFFPLR 38 has out of range value.\n   **   ~~~   ** ...Curve maximum must be <= 1.0, curve max at PLR = 0.99 is 1.015\n   **   ~~~   ** ...Setting curve maximum to 1.0 and simulation continues.\n   ** Warning ** GetDXCoils: Coil:Cooling:DX:SingleSpeed=\"COIL COOLING DX SINGLE SPEED 42 2KBTU/HR 11.0EER\", invalid\n   **   ~~~   ** ...Part Load Fraction Correlation Curve Name = DXCOOL-NECB2011-REF-COOLPLFFPLR 36 has out of range value.\n   **   ~~~   ** ...Curve maximum must be <= 1.0, curve max at PLR = 0.99 is 1.015\n   **   ~~~   ** ...Setting curve maximum to 1.0 and simulation continues.\n   ** Warning ** GetDXCoils: Coil:Cooling:DX:SingleSpeed=\"COIL COOLING DX SINGLE SPEED 35 2KBTU/HR 11.0EER\", invalid\n   **   ~~~   ** ...Part Load Fraction Correlation Curve Name = DXCOOL-NECB2011-REF-COOLPLFFPLR 28 has out of range value.\n   **   ~~~   ** ...Curve maximum must be <= 1.0, curve max at PLR = 0.99 is 1.015\n   **   ~~~   ** ...Setting curve maximum to 1.0 and simulation continues.\n   ** Warning ** GetDXCoils: Coil:Cooling:DX:SingleSpeed=\"COIL COOLING DX SINGLE SPEED 37 7KBTU/HR 11.0EER\", invalid\n   **   ~~~   ** ...Part Load Fraction Correlation Curve Name = DXCOOL-NECB2011-REF-COOLPLFFPLR 30 has out of range value.\n   **   ~~~   ** ...Curve maximum must be <= 1.0, curve max at PLR = 0.99 is 1.015\n   **   ~~~   ** ...Setting curve maximum to 1.0 and simulation continues.\n   ** Warning ** GetDXCoils: Coil:Cooling:DX:SingleSpeed=\"COIL COOLING DX SINGLE SPEED 36 2KBTU/HR 11.0EER\", invalid\n   **   ~~~   ** ...Part Load Fraction Correlation Curve Name = DXCOOL-NECB2011-REF-COOLPLFFPLR 29 has out of range value.\n   **   ~~~   ** ...Curve maximum must be <= 1.0, curve max at PLR = 0.99 is 1.015\n   **   ~~~   ** ...Setting curve maximum to 1.0 and simulation continues.\n   ** Warning ** GetDXCoils: Coil:Cooling:DX:SingleSpeed=\"COIL COOLING DX SINGLE SPEED 34 7KBTU/HR 11.0EER\", invalid\n   **   ~~~   ** ...Part Load Fraction Correlation Curve Name = DXCOOL-NECB2011-REF-COOLPLFFPLR 27 has out of range value.\n   **   ~~~   ** ...Curve maximum must be <= 1.0, curve max at PLR = 0.99 is 1.015\n   **   ~~~   ** ...Setting curve maximum to 1.0 and simulation continues.\n   ** Warning ** GetDXCoils: Coil:Cooling:DX:SingleSpeed=\"COIL COOLING DX SINGLE SPEED 33 2KBTU/HR 11.0EER\", invalid\n   **   ~~~   ** ...Part Load Fraction Correlation Curve Name = DXCOOL-NECB2011-REF-COOLPLFFPLR 26 has out of range value.\n   **   ~~~   ** ...Curve maximum must be <= 1.0, curve max at PLR = 0.99 is 1.015\n   **   ~~~   ** ...Setting curve maximum to 1.0 and simulation continues.\n   ** Warning ** GetDXCoils: Coil:Cooling:DX:SingleSpeed=\"COIL COOLING DX SINGLE SPEED 28 5KBTU/HR 11.0EER\", invalid\n   **   ~~~   ** ...Part Load Fraction Correlation Curve Name = DXCOOL-NECB2011-REF-COOLPLFFPLR 20 has out of range value.\n   **   ~~~   ** ...Curve maximum must be <= 1.0, curve max at PLR = 0.99 is 1.015\n   **   ~~~   ** ...Setting curve maximum to 1.0 and simulation continues.\n   ** Warning ** GetDXCoils: Coil:Cooling:DX:SingleSpeed=\"COIL COOLING DX SINGLE SPEED 29 12KBTU/HR 10.0EER\", invalid\n   **   ~~~   ** ...Part Load Fraction Correlation Curve Name = DXCOOL-NECB2011-REF-COOLPLFFPLR 21 has out of range value.\n   **   ~~~   ** ...Curve maximum must be <= 1.0, curve max at PLR = 0.99 is 1.015\n   **   ~~~   ** ...Setting curve maximum to 1.0 and simulation continues.\n   ** Warning ** GetDXCoils: Coil:Cooling:DX:SingleSpeed=\"COIL COOLING DX SINGLE SPEED 32 10KBTU/HR 10.4EER\", invalid\n   **   ~~~   ** ...Part Load Fraction Correlation Curve Name = DXCOOL-NECB2011-REF-COOLPLFFPLR 25 has out of range value.\n   **   ~~~   ** ...Curve maximum must be <= 1.0, curve max at PLR = 0.99 is 1.015\n   **   ~~~   ** ...Setting curve maximum to 1.0 and simulation continues.\n   ** Warning ** GetDXCoils: Coil:Cooling:DX:SingleSpeed=\"COIL COOLING DX SINGLE SPEED 31 12KBTU/HR 10.0EER\", invalid\n   **   ~~~   ** ...Part Load Fraction Correlation Curve Name = DXCOOL-NECB2011-REF-COOLPLFFPLR 24 has out of range value.\n   **   ~~~   ** ...Curve maximum must be <= 1.0, curve max at PLR = 0.99 is 1.015\n   **   ~~~   ** ...Setting curve maximum to 1.0 and simulation continues.\n   ** Warning ** GetDXCoils: Coil:Cooling:DX:SingleSpeed=\"COIL COOLING DX SINGLE SPEED 30 4KBTU/HR 11.0EER\", invalid\n   **   ~~~   ** ...Part Load Fraction Correlation Curve Name = DXCOOL-NECB2011-REF-COOLPLFFPLR 23 has out of range value.\n   **   ~~~   ** ...Curve maximum must be <= 1.0, curve max at PLR = 0.99 is 1.015\n   **   ~~~   ** ...Setting curve maximum to 1.0 and simulation continues.\n   ** Warning ** GetDXCoils: Coil:Cooling:DX:SingleSpeed=\"COIL COOLING DX SINGLE SPEED 25 3KBTU/HR 11.0EER\", invalid\n   **   ~~~   ** ...Part Load Fraction Correlation Curve Name = DXCOOL-NECB2011-REF-COOLPLFFPLR 17 has out of range value.\n   **   ~~~   ** ...Curve maximum must be <= 1.0, curve max at PLR = 0.99 is 1.015\n   **   ~~~   ** ...Setting curve maximum to 1.0 and simulation continues.\n   ** Warning ** GetDXCoils: Coil:Cooling:DX:SingleSpeed=\"COIL COOLING DX SINGLE SPEED 23 12KBTU/HR 10.0EER\", invalid\n   **   ~~~   ** ...Part Load Fraction Correlation Curve Name = DXCOOL-NECB2011-REF-COOLPLFFPLR 15 has out of range value.\n   **   ~~~   ** ...Curve maximum must be <= 1.0, curve max at PLR = 0.99 is 1.015\n   **   ~~~   ** ...Setting curve maximum to 1.0 and simulation continues.\n   ** Warning ** GetDXCoils: Coil:Cooling:DX:SingleSpeed=\"COIL COOLING DX SINGLE SPEED 22 3KBTU/HR 11.0EER\", invalid\n   **   ~~~   ** ...Part Load Fraction Correlation Curve Name = DXCOOL-NECB2011-REF-COOLPLFFPLR 14 has out of range value.\n   **   ~~~   ** ...Curve maximum must be <= 1.0, curve max at PLR = 0.99 is 1.015\n   **   ~~~   ** ...Setting curve maximum to 1.0 and simulation continues.\n   ** Warning ** GetDXCoils: Coil:Cooling:DX:SingleSpeed=\"COIL COOLING DX SINGLE SPEED 21 12KBTU/HR 10.0EER\", invalid\n   **   ~~~   ** ...Part Load Fraction Correlation Curve Name = DXCOOL-NECB2011-REF-COOLPLFFPLR 13 has out of range value.\n   **   ~~~   ** ...Curve maximum must be <= 1.0, curve max at PLR = 0.99 is 1.015\n   **   ~~~   ** ...Setting curve maximum to 1.0 and simulation continues.\n   ** Warning ** GetDXCoils: Coil:Cooling:DX:SingleSpeed=\"COIL COOLING DX SINGLE SPEED 24 3KBTU/HR 11.0EER\", invalid\n   **   ~~~   ** ...Part Load Fraction Correlation Curve Name = DXCOOL-NECB2011-REF-COOLPLFFPLR 16 has out of range value.\n   **   ~~~   ** ...Curve maximum must be <= 1.0, curve max at PLR = 0.99 is 1.015\n   **   ~~~   ** ...Setting curve maximum to 1.0 and simulation continues.\n   ** Warning ** GetDXCoils: Coil:Cooling:DX:SingleSpeed=\"COIL COOLING DX SINGLE SPEED 20 1KBTU/HR 11.0EER\", invalid\n   **   ~~~   ** ...Part Load Fraction Correlation Curve Name = DXCOOL-NECB2011-REF-COOLPLFFPLR 12 has out of range value.\n   **   ~~~   ** ...Curve maximum must be <= 1.0, curve max at PLR = 0.99 is 1.015\n   **   ~~~   ** ...Setting curve maximum to 1.0 and simulation continues.\n   ** Warning ** GetDXCoils: Coil:Cooling:DX:SingleSpeed=\"COIL COOLING DX SINGLE SPEED 16 2KBTU/HR 11.0EER\", invalid\n   **   ~~~   ** ...Part Load Fraction Correlation Curve Name = DXCOOL-NECB2011-REF-COOLPLFFPLR 7 has out of range value.\n   **   ~~~   ** ...Curve maximum must be <= 1.0, curve max at PLR = 0.99 is 1.015\n   **   ~~~   ** ...Setting curve maximum to 1.0 and simulation continues.\n   ** Warning ** GetDXCoils: Coil:Cooling:DX:SingleSpeed=\"COIL COOLING DX SINGLE SPEED 8 2KBTU/HR 11.0EER\", invalid\n   **   ~~~   ** ...Part Load Fraction Correlation Curve Name = DXCOOL-NECB2011-REF-COOLPLFFPLR 64 has out of range value.\n   **   ~~~   ** ...Curve maximum must be <= 1.0, curve max at PLR = 0.99 is 1.015\n   **   ~~~   ** ...Setting curve maximum to 1.0 and simulation continues.\n   ** Warning ** GetDXCoils: Coil:Cooling:DX:SingleSpeed=\"COIL COOLING DX SINGLE SPEED 39 2KBTU/HR 11.0EER\", invalid\n   **   ~~~   ** ...Part Load Fraction Correlation Curve Name = DXCOOL-NECB2011-REF-COOLPLFFPLR 32 has out of range value.\n   **   ~~~   ** ...Curve maximum must be <= 1.0, curve max at PLR = 0.99 is 1.015\n   **   ~~~   ** ...Setting curve maximum to 1.0 and simulation continues.\n   ** Warning ** GetDXCoils: Coil:Cooling:DX:SingleSpeed=\"COIL COOLING DX SINGLE SPEED 27 3KBTU/HR 11.0EER\", invalid\n   **   ~~~   ** ...Part Load Fraction Correlation Curve Name = DXCOOL-NECB2011-REF-COOLPLFFPLR 19 has out of range value.\n   **   ~~~   ** ...Curve maximum must be <= 1.0, curve max at PLR = 0.99 is 1.015\n   **   ~~~   ** ...Setting curve maximum to 1.0 and simulation continues.\n   ** Warning ** GetDXCoils: Coil:Cooling:DX:SingleSpeed=\"COIL COOLING DX SINGLE SPEED 1 116KBTU/HR 9.7EER\", invalid\n   **   ~~~   ** ...Part Load Fraction Correlation Curve Name = DXCOOL-NECB2011-REF-COOLPLFFPLR has out of range value.\n   **   ~~~   ** ...Curve maximum must be <= 1.0, curve max at PLR = 0.99 is 1.015\n   **   ~~~   ** ...Setting curve maximum to 1.0 and simulation continues.\n   ** Warning ** GetDXCoils: Coil:Cooling:DX:SingleSpeed=\"COIL COOLING DX SINGLE SPEED 46 7KBTU/HR 14.0SEER\", invalid\n   **   ~~~   ** ...Part Load Fraction Correlation Curve Name = DXCOOL-NECB2011-REF-COOLPLFFPLR 40 has out of range value.\n   **   ~~~   ** ...Curve maximum must be <= 1.0, curve max at PLR = 0.99 is 1.015\n   **   ~~~   ** ...Setting curve maximum to 1.0 and simulation continues.\n   ** Warning ** GetDXCoils: Coil:Cooling:DX:SingleSpeed=\"COIL COOLING DX SINGLE SPEED 50 5KBTU/HR 14.0SEER\", invalid\n   **   ~~~   ** ...Part Load Fraction Correlation Curve Name = DXCOOL-NECB2011-REF-COOLPLFFPLR 45 has out of range value.\n   **   ~~~   ** ...Curve maximum must be <= 1.0, curve max at PLR = 0.99 is 1.015\n   **   ~~~   ** ...Setting curve maximum to 1.0 and simulation continues.\n   ** Warning ** GetDXCoils: Coil:Cooling:DX:SingleSpeed=\"COIL COOLING DX SINGLE SPEED 45 5KBTU/HR 14.0SEER\", invalid\n   **   ~~~   ** ...Part Load Fraction Correlation Curve Name = DXCOOL-NECB2011-REF-COOLPLFFPLR 39 has out of range value.\n   **   ~~~   ** ...Curve maximum must be <= 1.0, curve max at PLR = 0.99 is 1.015\n   **   ~~~   ** ...Setting curve maximum to 1.0 and simulation continues.\n   ** Warning ** GetDXCoils: Coil:Cooling:DX:SingleSpeed=\"COIL COOLING DX SINGLE SPEED 53 5KBTU/HR 14.0SEER\", invalid\n   **   ~~~   ** ...Part Load Fraction Correlation Curve Name = DXCOOL-NECB2011-REF-COOLPLFFPLR 48 has out of range value.\n   **   ~~~   ** ...Curve maximum must be <= 1.0, curve max at PLR = 0.99 is 1.015\n   **   ~~~   ** ...Setting curve maximum to 1.0 and simulation continues.\n   ** Warning ** GetDXCoils: Coil:Cooling:DX:SingleSpeed=\"COIL COOLING DX SINGLE SPEED 52 5KBTU/HR 14.0SEER\", invalid\n   **   ~~~   ** ...Part Load Fraction Correlation Curve Name = DXCOOL-NECB2011-REF-COOLPLFFPLR 47 has out of range value.\n   **   ~~~   ** ...Curve maximum must be <= 1.0, curve max at PLR = 0.99 is 1.015\n   **   ~~~   ** ...Setting curve maximum to 1.0 and simulation continues.\n   ** Warning ** GetDXCoils: Coil:Cooling:DX:SingleSpeed=\"COIL COOLING DX SINGLE SPEED 49 4KBTU/HR 14.0SEER\", invalid\n   **   ~~~   ** ...Part Load Fraction Correlation Curve Name = DXCOOL-NECB2011-REF-COOLPLFFPLR 43 has out of range value.\n   **   ~~~   ** ...Curve maximum must be <= 1.0, curve max at PLR = 0.99 is 1.015\n   **   ~~~   ** ...Setting curve maximum to 1.0 and simulation continues.\n   ** Warning ** GetDXCoils: Coil:Cooling:DX:SingleSpeed=\"COIL COOLING DX SINGLE SPEED 51 20KBTU/HR 14.0SEER\", invalid\n   **   ~~~   ** ...Part Load Fraction Correlation Curve Name = DXCOOL-NECB2011-REF-COOLPLFFPLR 46 has out of range value.\n   **   ~~~   ** ...Curve maximum must be <= 1.0, curve max at PLR = 0.99 is 1.015\n   **   ~~~   ** ...Setting curve maximum to 1.0 and simulation continues.\n   ** Warning ** GetDXCoils: Coil:Cooling:DX:SingleSpeed=\"COIL COOLING DX SINGLE SPEED 57 2KBTU/HR 14.0SEER\", invalid\n   **   ~~~   ** ...Part Load Fraction Correlation Curve Name = DXCOOL-NECB2011-REF-COOLPLFFPLR 52 has out of range value.\n   **   ~~~   ** ...Curve maximum must be <= 1.0, curve max at PLR = 0.99 is 1.015\n   **   ~~~   ** ...Setting curve maximum to 1.0 and simulation continues.\n   ** Warning ** GetDXCoils: Coil:Cooling:DX:SingleSpeed=\"COIL COOLING DX SINGLE SPEED 54 2KBTU/HR 14.0SEER\", invalid\n   **   ~~~   ** ...Part Load Fraction Correlation Curve Name = DXCOOL-NECB2011-REF-COOLPLFFPLR 49 has out of range value.\n   **   ~~~   ** ...Curve maximum must be <= 1.0, curve max at PLR = 0.99 is 1.015\n   **   ~~~   ** ...Setting curve maximum to 1.0 and simulation continues.\n   ** Warning ** GetDXCoils: Coil:Cooling:DX:SingleSpeed=\"COIL COOLING DX SINGLE SPEED 64 2KBTU/HR 14.0SEER\", invalid\n   **   ~~~   ** ...Part Load Fraction Correlation Curve Name = DXCOOL-NECB2011-REF-COOLPLFFPLR 60 has out of range value.\n   **   ~~~   ** ...Curve maximum must be <= 1.0, curve max at PLR = 0.99 is 1.015\n   **   ~~~   ** ...Setting curve maximum to 1.0 and simulation continues.\n   ** Warning ** GetDXCoils: Coil:Cooling:DX:SingleSpeed=\"COIL COOLING DX SINGLE SPEED 61 3KBTU/HR 14.0SEER\", invalid\n   **   ~~~   ** ...Part Load Fraction Correlation Curve Name = DXCOOL-NECB2011-REF-COOLPLFFPLR 57 has out of range value.\n   **   ~~~   ** ...Curve maximum must be <= 1.0, curve max at PLR = 0.99 is 1.015\n   **   ~~~   ** ...Setting curve maximum to 1.0 and simulation continues.\n   ** Warning ** GetDXCoils: Coil:Cooling:DX:SingleSpeed=\"COIL COOLING DX SINGLE SPEED 58 1KBTU/HR 14.0SEER\", invalid\n   **   ~~~   ** ...Part Load Fraction Correlation Curve Name = DXCOOL-NECB2011-REF-COOLPLFFPLR 53 has out of range value.\n   **   ~~~   ** ...Curve maximum must be <= 1.0, curve max at PLR = 0.99 is 1.015\n   **   ~~~   ** ...Setting curve maximum to 1.0 and simulation continues.\n   ** Warning ** GetDXCoils: Coil:Cooling:DX:SingleSpeed=\"COIL COOLING DX SINGLE SPEED 55 1KBTU/HR 14.0SEER\", invalid\n   **   ~~~   ** ...Part Load Fraction Correlation Curve Name = DXCOOL-NECB2011-REF-COOLPLFFPLR 50 has out of range value.\n   **   ~~~   ** ...Curve maximum must be <= 1.0, curve max at PLR = 0.99 is 1.015\n   **   ~~~   ** ...Setting curve maximum to 1.0 and simulation continues.\n   ** Warning ** GetDXCoils: Coil:Cooling:DX:SingleSpeed=\"COIL COOLING DX SINGLE SPEED 65 1KBTU/HR 14.0SEER\", invalid\n   **   ~~~   ** ...Part Load Fraction Correlation Curve Name = DXCOOL-NECB2011-REF-COOLPLFFPLR 61 has out of range value.\n   **   ~~~   ** ...Curve maximum must be <= 1.0, curve max at PLR = 0.99 is 1.015\n   **   ~~~   ** ...Setting curve maximum to 1.0 and simulation continues.\n   ** Warning ** GetDXCoils: Coil:Cooling:DX:SingleSpeed=\"COIL COOLING DX SINGLE SPEED 62 2KBTU/HR 14.0SEER\", invalid\n   **   ~~~   ** ...Part Load Fraction Correlation Curve Name = DXCOOL-NECB2011-REF-COOLPLFFPLR 58 has out of range value.\n   **   ~~~   ** ...Curve maximum must be <= 1.0, curve max at PLR = 0.99 is 1.015\n   **   ~~~   ** ...Setting curve maximum to 1.0 and simulation continues.\n   ** Warning ** GetDXCoils: Coil:Cooling:DX:SingleSpeed=\"COIL COOLING DX SINGLE SPEED 59 6KBTU/HR 14.0SEER\", invalid\n   **   ~~~   ** ...Part Load Fraction Correlation Curve Name = DXCOOL-NECB2011-REF-COOLPLFFPLR 54 has out of range value.\n   **   ~~~   ** ...Curve maximum must be <= 1.0, curve max at PLR = 0.99 is 1.015\n   **   ~~~   ** ...Setting curve maximum to 1.0 and simulation continues.\n   ** Warning ** GetDXCoils: Coil:Cooling:DX:SingleSpeed=\"COIL COOLING DX SINGLE SPEED 48 3KBTU/HR 14.0SEER\", invalid\n   **   ~~~   ** ...Part Load Fraction Correlation Curve Name = DXCOOL-NECB2011-REF-COOLPLFFPLR 42 has out of range value.\n   **   ~~~   ** ...Curve maximum must be <= 1.0, curve max at PLR = 0.99 is 1.015\n   **   ~~~   ** ...Setting curve maximum to 1.0 and simulation continues.\n   ** Warning ** GetDXCoils: Coil:Cooling:DX:SingleSpeed=\"COIL COOLING DX SINGLE SPEED 60 3KBTU/HR 14.0SEER\", invalid\n   **   ~~~   ** ...Part Load Fraction Correlation Curve Name = DXCOOL-NECB2011-REF-COOLPLFFPLR 56 has out of range value.\n   **   ~~~   ** ...Curve maximum must be <= 1.0, curve max at PLR = 0.99 is 1.015\n   **   ~~~   ** ...Setting curve maximum to 1.0 and simulation continues.\n   ** Warning ** GetDXCoils: Coil:Cooling:DX:SingleSpeed=\"COIL COOLING DX SINGLE SPEED 56 3KBTU/HR 14.0SEER\", invalid\n   **   ~~~   ** ...Part Load Fraction Correlation Curve Name = DXCOOL-NECB2011-REF-COOLPLFFPLR 51 has out of range value.\n   **   ~~~   ** ...Curve maximum must be <= 1.0, curve max at PLR = 0.99 is 1.015\n   **   ~~~   ** ...Setting curve maximum to 1.0 and simulation continues.\n   ** Warning ** GetDXCoils: Coil:Cooling:DX:SingleSpeed=\"COIL COOLING DX SINGLE SPEED 66 3KBTU/HR 14.0SEER\", invalid\n   **   ~~~   ** ...Part Load Fraction Correlation Curve Name = DXCOOL-NECB2011-REF-COOLPLFFPLR 62 has out of range value.\n   **   ~~~   ** ...Curve maximum must be <= 1.0, curve max at PLR = 0.99 is 1.015\n   **   ~~~   ** ...Setting curve maximum to 1.0 and simulation continues.\n   ** Warning ** GetDXCoils: Coil:Cooling:DX:SingleSpeed=\"COIL COOLING DX SINGLE SPEED 63 4KBTU/HR 14.0SEER\", invalid\n   **   ~~~   ** ...Part Load Fraction Correlation Curve Name = DXCOOL-NECB2011-REF-COOLPLFFPLR 59 has out of range value.\n   **   ~~~   ** ...Curve maximum must be <= 1.0, curve max at PLR = 0.99 is 1.015\n   **   ~~~   ** ...Setting curve maximum to 1.0 and simulation continues.\n   ** Warning ** GetDXCoils: Coil:Cooling:DX:SingleSpeed=\"COIL COOLING DX SINGLE SPEED 47 1KBTU/HR 14.0SEER\", invalid\n   **   ~~~   ** ...Part Load Fraction Correlation Curve Name = DXCOOL-NECB2011-REF-COOLPLFFPLR 41 has out of range value.\n   **   ~~~   ** ...Curve maximum must be <= 1.0, curve max at PLR = 0.99 is 1.015\n   **   ~~~   ** ...Setting curve maximum to 1.0 and simulation continues.\n   ** Warning ** Since Zone Minimum Air Flow Input Method = CONSTANT, input for Fixed Minimum Air Flow Rate will be ignored.\n   **   ~~~   ** Occurs in AirTerminal:SingleDuct:VAV:Reheat = AIR TERMINAL SINGLE DUCT VAV REHEAT 2\n   ** Warning ** Since Zone Minimum Air Flow Input Method = CONSTANT, input for Fixed Minimum Air Flow Rate will be ignored.\n   **   ~~~   ** Occurs in AirTerminal:SingleDuct:VAV:Reheat = AIR TERMINAL SINGLE DUCT VAV REHEAT 1\n   ************* Beginning Plant Sizing Calculations\n   ** Warning ** The Standard Ratings is calculated for Coil:Cooling:DX:SingleSpeed = COIL COOLING DX SINGLE SPEED 7 5KBTU/HR 11.0EER but not at the AHRI test condition due to curve out of bound.\n   **   ~~~   **  Review the Standard Ratings calculations in the Engineering Reference for this coil type. Also, use Output:Diagnostics, DisplayExtraWarnings for further guidance.\n   ** Warning ** The Standard Ratings is calculated for Coil:Cooling:DX:SingleSpeed = COIL COOLING DX SINGLE SPEED 38 5KBTU/HR 11.0EER but not at the AHRI test condition due to curve out of bound.\n   **   ~~~   **  Review the Standard Ratings calculations in the Engineering Reference for this coil type. Also, use Output:Diagnostics, DisplayExtraWarnings for further guidance.\n   ** Warning ** The Standard Ratings is calculated for Coil:Cooling:DX:SingleSpeed = COIL COOLING DX SINGLE SPEED 26 12KBTU/HR 9.9EER but not at the AHRI test condition due to curve out of bound.\n   **   ~~~   **  Review the
[...]
nRmvElSNCHIVerMbJO8aEKQq9eZwSap0YSb0dXszFST7GhCkKvZmZGmCNJ2cyRDmhAUv0WSI00Iig+/ZEkTguLDL3nShKD48GumNCXJ1u3MZNNkaUqSrd6Z4ab50pQkW8Mz801Tpil3pa3jmRGnWdOUJFvHM1MOcRriNMRp9wgRp9ULcRriNMRpmYU4DXFap1eFOK2xf4fnI07bXYjTtquHn9M6ML8AOOCAAw444IADDjjggAPO4HEOTDsADTTQQAMNNNBAAw000EAzHJpHozsABxxwwAEHHHDAAQcccMAp3w9x2mYhTtuK0+YDEafNhyBOm+9NnDa//VpoqeTGFTRxBU1dQTNX0NwVtHAFLV1BK1dQ4/v3WpKt28lW7mRrd7LVO9n6nWwFT7aGJ1vFk63jla3jle/+tnW8snW86tbx9uK0Zla5OE3Jid+lcnGakhPfAuXiNCUnvgHKxWlKTnz6BXGaFORqdGa8CeI0KchV6sxsE8RpUpCr15nBJojTpJvR1ezMVBPEaVKQq9mZkVYuTmvmCOI0KSh+iwRxmhQUH35BnCYFxYdfEKdJQfHhV8RpWpKt25nJpojTtCRbvTPDTRGnaUm2hmfmmyJO0+5KW8czI04Rp2lJto5nphziNMRpiNPuESJOqxfiNMRpiNMyC3Ea4rROrwpxWmP/Ds9HnLa7EKdtVw8/p3VgfgFwwAEHHHDAAQcccMABB5zB4xyYdgAaaKCBBhpooIEGGmiggWY4NI9GdwAOOOCAAw444IADDjjggFO+H+K0zUKcthWnLQYiTlsMQZy22Js4bXxUWbxpSs7ElDM15cxMOXNTzsKUszTlrEw5ja/dS0GuRidXpZOr08lV6uRqdXLVOrl6nVzFTq5mV65mV7a72tXsytXsqlOz2wvSGlHlfjQhJnyHyu1oQkx47svdaEJMeObLzWhCTHjeBS+akmPqcTzGBCmakmOqcjzDBCOakmNqczzABB2acg+a+hxPL8GFpuSY+hyPrnIRWiNG8KApOeHbI1jQlJzwuAsONCUnPO6CAU3JCY+74j+TglyNjieYIj+TglyljoeYYj6Tgly9jueYoj2TbkZXs+NRpjjPpCBXs+NphvAM4RnCs3uECM/qhfAM4RnCs8xCeIbwrNOrQnjW2L/D8xGe7S6EZ9vVw89XHZgXABxwwAEHHHDAAQcccMABZ/A4B6YLgAYaaKCBBhpooIEGGmigGQ7No9EUgAMOOOCAAw444IADDjjglO+H8GyzEJ5thWfLgQjPlkMQni33KDwbz0zGMyFo4gqauoJmrqC5K2jhClq6glauoA++cK8k2bqdbOVOtnYnW72Trd/JVvBka3iyVTzZOl7ZOl757m9bxytbx6tuHe8iQtvNUkxo5Tnxu6S40Mpz4ltAsaGV58Q3gOJDK8+JT79kRBOCXI3OjDdJiiYEuUqdmW2SF00IcvU6M9gkNZpwM7qanZlqkh1NCHI1OzPSFEHabo5kSBOC4rdIcqQJQfHhlyxpQlB8+CVPmhAUH37NlKYk2bqdmWyaLE1JstU7M9w0X5qSZGt4Zr5pyjTlrrR1PDPiNGuakmTreGbKIU5DnIY47R4h4rR6IU5DnIY4LbMQpyFO6/SqEKc19u/wfMRpuwtx2nb18HNaB+YXAAcccMABBxxwwAEHHHDAGTzOgWkHoIEGGmiggQYaaKCBBhpohkPzaHQH4IADDjjggAMOOOCAAw445fshTtssxGlbcdpqIOK01RDEaau9idPmt18LLZXcuIImrqCpK2jmCpq7ghauoKUraOUKanz/XkuydTvZyp1s7U62eidbv5Ot4MnW8GSreLJ1vLJ1vPLd37aOV7aOV9063l6c1swqF6cpOfG7VC5OU3LiW6BcnKbkxDdAuThNyYlPvyBOk4Jcjc6MN0GcJgW5Sp2ZbYI4TQpy9Toz2ARxmnQzupqdmWqCOE0KcjU7M9LKxWnNHEGcJgXFb5EgTpOC4sMviNOkoPjwC+I0KSg+/Io4TUuydTsz2RRxmpZkq3dmuCniNC3J1vDMfFPEadpdaet4ZsQp4jQtydbxzJRDnIY4DXHaPULEafVCnIY4DXFaZiFOQ5zW6VUhTmvs3+H5iNN2F+K07erh57QOzC8ADjjggAMOOOCAAw444IAzeJwD0w5AAw000EADDTTQQAMNNNAMh+bR6A7AAQcccMABBxxwwAEHHHDK90OctlmI0+7EactheNOW4wF4024g8aYVBeFNezgIb1qrJLxpeNPwpuFNw5uGNw1vGt40vGm/ezPiTXs4CG/ag0F40/Cm4U3Dm2ZLwpvWLglvWgyDNw1v2ocLb9odPt60DxfetDYLb1q35+NNw5vW6VXhTWvs3+H5eNN2F9607erhx7QOTC8ADjjggAMOOOCAAw444IAzeJwDsw5AAw000EADDTTQQAMNNNAMh+bR2A7AAQcccMABBxxwwAEHHHDK98Obtll407betPFAxGlpCOK0tDdx2viosnjTlJyJKWdqypmZcuamnIUpZ2nKWZlyGl+7l4JcjU6uSidXp5Or1MnV6uSqdXL1OrmKnVzNrlzNrmx3tavZlavZVadmtxekNaLK/WhCTPgOldvRhJjw3Je70YSY8MyXm9GEmPC8C140JcfU43iMCVI0JcdU5XiGCUY0JcfU5niACTo05R409TmeXoILTckx9TkeXeUitEaM4EFTcsK3R7CgKTnhcRccaEpOeNwFA5qSEx53xX8mBbkaHU8wRX4mBblKHQ8xxXwmBbl6Hc8xRXsm3YyuZsejTHGeSUGuZsfTDOEZwjOEZ/cIEZ7VC+EZwjOEZ5mF8AzhWadXhfCssX+H5yM8210Iz7arh5+vOjAvADjggAMOOOCAAw444IADzuBxDkwXAA000EADDTTQQAMNNNBAMxyaR6MpAAcccMABBxxwwAEHHHDAKd8P4dlmITzbCs/SQIRn1RCEZ9UehWfjmcl4JgRNXEFTV9DMFTR3BS1cQUtX0MoV9MEX7pUkW7eTrdzJ1u5kq3ey9TvZCp5sDU+2iidbxytbxyvf/W3reGXreNWt411EaLtZigmtPCd+lxQXWnlOfAsoNrTynPgGUHxo5Tnx6ZeMaEKQq9GZ8SZJ0YQgV6kzs03yoglBrl5nBpukRhNuRlezM1NNsqMJQa5mZ0aaIkjbzZEMaUJQ/BZJjjQhKD78kiVNCIoPv+RJE4Liw6+Z0pQkW7czk02TpSlJtnpnhpvmS1OSbA3PzDdNmabclbaOZ0acZk1Tkmwdz0w5xGmI0xCn3SNEnFYvxGmI0xCnZRbiNMRpnV4V4rTG/h2ejzhtdyFO264efk7rwPwC4IADDjjggAMOOOCAAw44g8c5MO0ANNBAAw000EADDTTQQAPNcGgeje4AHHDAAQcccMABBxxwwAGnfD/EaZuFOG0rTqsGIk6bDEGcNtmbOG1++7XQUsmNK2jiCpq6gmauoLkraOEKWrqCVq6gxvfvtSRbt5Ot3MnW7mSrd7L1O9kKnmwNT7aKJ1vHK1vHK9/9bet4Zet41a3j7cVpzaxycZqSE79L5eI0JSe+BcrFaUpOfAOUi9OUnPj0C+I0KcjV6Mx4E8RpUpCr1JnZJojTpCBXrzODTRCnSTejq9mZqSaI06QgV7MzI61cnNbMEcRpUlD8FgniNCkoPvyCOE0Kig+/IE6TguLDr4jTtCRbtzOTTRGnaUm2emeGmyJO05JsDc/MN0Wcpt2Vto5nRpwiTtOSbB3PTDnEaYjTEKfdI0ScVi/EaYjTEKdlFuI0xGmdXhXitMb+HZ6POG13IU7brh5+TuvA/ALggAMOOOCAAw444IADDjiDxzkw7QA00EADDTTQQAMNNNBAA81waB6N7gAccMABBxxwwAEHHHDAAad8P8Rpm4U4bStOmwxEnDYdgjhtujdx2viosnjTlJyJKWdqypmZcuamnIUpZ2nKWZlyGl+7l4JcjU6uSidXp5Or1MnV6uSqdXL1OrmKnVzNrlzNrmx3tavZlavZVadmtxekNaLK/WhCTPgOldvRhJjw3Je70YSY8MyXm9GEmPC8C140JcfU43iMCVI0JcdU5XiGCUY0JcfU5niACTo05R409TmeXoILTckx9TkeXeUitEaM4EFTcsK3R7CgKTnhcRccaEpOeNwFA5qSEx53xX8mBbkaHU8wRX4mBblKHQ8xxXwmBbl6Hc8xRXsm3YyuZsejTHGeSUGuZsfTDOEZwjOEZ/cIEZ7VC+EZwjOEZ5mF8AzhWadXhfCssX+H5yM8210Iz7arh5+vOjAvADjggAMOOOCAAw444IADzuBxDkwXAA000EADDTTQQAMNNNBAMxyaR6MpAAcccMABBxxwwAEHHHDAKd8P4dlmITzbCs+mAxGezYYgPJvtUXg2npmMZ0LQxBU0dQXNXEFzV9DCFbR0Ba1cQR984V5JsnU72cqdbO1OtnonW7+TreDJ1vBkq3iydbyydbzy3d+2jle2jlfdOt5FhLabpZjQynPid0lxoZXnxLeAYkMrz4lvAMWHVp4Tn37JiCYEuRqdGW+SFE0IcpU6M9skL5oQ5Op1ZrBJajThZnQ1OzPVJDuaEORqdmakKYK03RzJkCYExW+R5EgTguLDL1nShKD48EueNCEoPvyaKU1JsnU7M9k0WZqSZKt3ZrhpvjQlydbwzHzTlGnKXWnreGbEadY0JcnW8cyUQ5yGOA1x2j1CxGn1QpyGOA1xWmYhTkOc1ulVIU5r7N/h+YjTdhfitO3q4ee0DswvAA444IADDjjggAMOOOCAM3icA9MOQAMNNNBAAw000EADDTTQDIfm0egOwAEHHHDAAQcccMABBxxwyvdDnLZZiNO24rTZQMRp8yGI0+Z7E6fNb78WWiq5cQVNXEFTV9DMFTR3BS1cQUtX0MoV1Pj+vZZk63aylTvZ2p1s9U62fidbwZOt4clW8WTreGXreOW7v20dr2wdr7p1vL04rZlVLk5TcuJ3qVycpuTEt0C5OE3JiW+AcnGakhOffkGcJgW5Gp0Zb4I4TQpylToz2wRxmhTk6nVmsAniNOlmdDU7M9UEcZoU5Gp2ZqSVi9OaOYI4TQqK3yJBnCYFxYdfEKdJQfHhF8RpUlB8+BVxmpZk63ZmsiniNC3JVu/McFPEaVqSreGZ+aaI07S70tbxzIhTxGlakq3jmSmHOA1xGuK0e4SI0+qFOA1xGuK0zEKchjit06tCnNbYv8PzEaftLsRp29XDz2kdmF8AHHDAAQcccMABBxxwwAFn8DgHph2ABhpooIEGGmiggQYaaKAZDs2j0R2AAw444IADDjjggAMOOOCU74c4bbMQp23FafOBiNMWQxCnLfYmThsfVRZvmpIzMeVMTTkzU87clLMw5SxNOStTTuNr91KQq9HJVenk6nRylTq5Wp1ctU6uXidXsZOr2ZWr2ZXtrnY1u3I1u+rU7PaCtEZUuR9NiAnfoXI7mhATnvtyN5oQE575cjOaEBOed8GLpuSYehyPMUGKpuSYqhzPMMGIpuSY2hwPMEGHptyDpj7H00twoSk5pj7Ho6tchNaIETxoSk749ggWNCUnPO6CA03JCY+7YEBTcsLjrvjPpCBXo+MJpsjPpCBXqeMhppjPpCBXr+M5pmjPpJvR1ex4lCnOMynI1ex4miE8Q3iG8OweIcKzeiE8Q3iG8CyzEJ4hPOv0qhCeNfbv8HyEZ7sL4dl29fDzVQfmBQAHHHDAAQcccMABBxxwwBk8zoHpAqCBBhpooIEGGmiggQYaaIZD82g0BeCAAw444IADDjjggAMOOOX7ITzbLIRnW+HZYiDCs+UQhGfLPQrPxjOT8UwImriCpq6gmSto7gpauIKWrqCVK+iDL9wrSbZuJ1u5k63dyVbvZOt3shU82RqebBVPto5Xto5Xvvvb1vHK1vGqW8e7iNB2sxQTWnlO/C4pLrTynPgWUGxo5TnxDaD40Mpz4tMvGdGEIFejM+NNkqIJQa5SZ2ab5EUTgly9zgw2SY0m3IyuZmemmmRHE4Jczc6MNEWQtpsjGdKEoPgtkhxpQlB8+CVLmhAUH37JkyYExYdfM6UpSbZuZyabJktTkmz1zgw3zZemJNkanplvmjJNuSttHc+MOM2apiTZOp6ZcojTEKchTrtHiDitXojTEKchTsssxGmI0zq9KsRpjf07PB9x2u5CnLZdPfyc1oH5BcABBxxwwAEHHHDAAQcccAaPc2DaAWiggQYaaKCBBhpooIEGmuHQPBrdATjggAMOOOCAAw444IADTvl+iNM2C3HaVpy2HIg4bTUEcdpqb+K0+e3XQkslN66giSto6gqauYLmrqCFK2jpClq5ghrfv9eSbN1OtnInW7uTrd7J1u9kK3iyNTzZKp5sHa9sHa9897et45Wt41W3jrcXpzWzysVpSk78LpWL05Sc+BYoF6cpOfENUC5OU3Li0y+I06QgV6Mz400Qp0lBrlJnZpsgTpOCXL3ODDZBnCbdjK5mZ6aaIE6TglzNzoy0cnFaM0cQp0lB8VskiNOkoPjwC+I0KSg+/II4TQqKD78iTtOSbN3OTDZFnKYl2eqdGW6KOE1LsjU8M98UcZp2V9o6nhlxijhNS7J1PDPlEKchTkOcdo8QcVq9EKchTkOcllmI0xCndXpViNMa+3d4PuK03YU4bbt6+DmtA/MLgAMOOOCAAw444IADDjjgDB7nwLQD0EADDTTQQAMNNNBAAw00w6F5NLoDcMABBxxwwAEHHHDAAQec8v0Qp20W4rStOG01DHHaajwAcdoN5L7EaeOjyuJNU3ImppypKWdmypmbchamnKUpZ2XKaXztXgpyNTq5Kp1cnU6uUidXq5Or1snV6+QqdnI1u3I1u7Ld1a5mV65mV52a3V6Q1ogq96MJMeE7VG5HE2LCc1/uRhNiwjNfbkYTYsLzLnjRlBxTj+MxJkjRlBxTleMZJhjRlBxTm+MBJujQlHvQ1Od4egkuNCXH1Od4dJWL0BoxggdNyQnfHsGCpuSEx11woCk54XEXDGhKTnjcFf+ZFORqdDzBFPmZFOQqdTzEFPOZFOTqdTzHFO2ZdDO6mh2PMsV5JgW5mh1PM4RnCM8Qnt0jRHhWL4RnCM8QnmUWwjOEZ51eFcKzxv4dno/wbHchPNuuHn6+6sC8AOCAAw444IADDjjggAMOOIPHOTBdADTQQAMNNNBAAw000EADzXBoHo2mABxwwAEHHHDAAQcccMABp3w/hGebhfDsTng2FN9ZGoLvLOE7w3f28Nfs8Z3hO8N3hu+sTRC+M3xn+M7wneE7w3eG7wzfWafBhe8M31mrIHxnDwfhO3s4CN/Zw0H4ziIYfGf4zj5c+M7u8PGdfbjwnbVZ+M66PR/fGb6zTq8K31lj/w7Px3e2u/CdbVcPP151YFoAcMABBxxwwAEHHHDAAQecweMcmC0AGmiggQYaaKCBBhpooIFmODSPxlIADjjggAMOOOCAAw444IBTvh++s83Cd7b1nY0HIjyrhiA8q/YoPBvPTMYzIWjiCpq6gmauoLkraOEKWrqCVq6gD75wryTZup1s5U62didbvZOt38lW8GRreLJVPNk6Xtk6Xvnub1vHK1vHq24d7yJC281STGjlOfG7pLjQynPiW0CxoZXnxDeA4kMrz4lPv2REE4Jcjc6MN0mKJgS5Sp2ZbZIXTQhy9Toz2CQ1mnAzupqdmWqSHU0IcjU7M9IUQdpujmRIE4Lit0hypAlB8eGXLGlCUHz4JU+aEBQffs2UpiTZup2ZbJosTUmy1Tsz3DRfmpJka3hmvmnKNOWutHU8M+I0a5qSZOt4ZsohTkOchjjtHiHitHohTkOchjgtsxCnIU7r9KoQpzX27/B8xGm7C3HadvXwc1oH5hcABxxwwAEHHHDAAQcccMAZPM6BaQeggQYaaKCBBhpooIEGGmiGQ/NodAfggAMOOOCAAw444IADDjjl+yFO2yzEaVtxWhqIOG0yBHHaZG/itPnt10JLJTeuoIkraOoKmrmC5q6ghSto6QpauYIa37/XkmzdTrZyJ1u7k63eydbvZCt4sjU82SqebB2vbB2vfPe3reOVreNVt463F6c1s8rFaUpO/C6Vi9OUnPgWKBenKTnxDVAuTlNy4tMviNOkIFejM+NNEKdJQa5SZ2abIE6Tgly9zgw2QZwm3YyuZmemmiBOk4Jczc6MtHJxWjNHEKdJQfFbJIjTpKD48AviNCkoPvyCOE0Kig+/Ik7Tkmzdzkw2RZymJdnqnRluijhNS7I1PDPfFHGadlfaOp4ZcYo4TUuydTwz5RCnIU5DnHaPEHFavRCnIU5DnJZZiNMQp3V6VYjTGvt3eD7itN2FOG27evg5rQPzC4ADDjjggAMOOOCAAw444Awe58C0A9BAAw000EADDTTQQAMNNMOheTS6A3DAAQcccMABBxxwwAEHnPL9EKdtFuK0rTitGog4bToEcdp0b+K08VFl8aYpORNTztSUMzPlzE05C1PO0pSzMuU0vnYvBbkanVyVTq5OJ1epk6vVyVXr5Op1chU7uZpduZpd2e5qV7MrV7OrTs1uL0hrRJX70YSY8B0qt6MJMeG5L3ejCTHhmS83owkx4XkXvGhKjqnH8RgTpGhKjqnK8QwTjGhKjqnN8QATdGjKPWjqczy9BBeakmPqczy6ykVojRjBg6bkhG+PYEFTcsLjLjjQlJzwuAsGNCUnPO6K/0wKcjU6nmCK/EwKcpU6HmKK+UwKcvU6nmOK9ky6GV3NjkeZ4jyTglzNjqcZwjOEZwjP7hEiPKsXwjOEZwjPMgvhGcKzTq8K4Vlj/w7PR3i2uxCebVcPP191YF4AcMABBxxwwAEHHHDAAQecweMcmC4AGmiggQYaaKCBBhpooIFmODSPRlMADjjggAMOOOCAAw444IBTvh/Cs81CeLYVnk0GIjybDUF4Ntuj8Gw8MxnPhKCJK2jqCpq5guauoIUraOkKWrmCPvjCvZJk63aylTvZ2p1s9U62fidbwZOt4clW8WTreGXreOW7v20dr2wdr7p1vIsIbTdLMaGV58TvkuJCK8+JbwHFhlaeE98Aig+tPCc+/ZIRTQhyNToz3iQpmhDkKnVmtkleNCHI1evMYJPUaMLN6Gp2ZqpJdjQhyNXszEhTBGm7OZIhTQiK3yLJkSYExYdfsqQJQfHhlzxpQlB8+DVTmpJk63ZmsmmyNCXJVu/McNN8aUqSreGZ+aYp05S70tbxzIjTrGlKkq3jmSmHOA1xGuK0e4SI0+qFOA1xGuK0zEKchjit06tCnNbYv8PzEaftLsRp29XDz2kdmF8AHHDAAQcccMABBxxwwAFn8DgHph2ABhpooIEGGmiggQYaaKAZDs2j0R2AAw444IADDjjggAMOOOCU74c4bbMQp23FadOBiNPmQxCnzfcmTpvffi20VHLjCpq4gqauoJkraO4KWriClq6glSuo8f17LcnW7WQrd7K1O9nqnWz9TraCJ1vDk63iydbxytbxynd/2zpe2Tpedet4e3FaM6tcnKbkxO9SuThNyYlvgXJxmpIT3wDl4jQlJz79gjhNCnI1OjPeBHGaFOQqdWa2CeI0KcjV68xgE8Rp0s3oanZmqgniNCnI1ezMSCsXpzVzBHGaFBS/RYI4TQqKD78gTpOC4sMviNOkoPjwK+I0LcnW7cxkU8RpWpKt3pnhpojTtCRbwzPzTRGnaXelreOZEaeI07QkW8czUw5xGuI0xGn3CBGn1QtxGuI0xGmZhTgNcVqnV4U4rbF/h+cjTttdiNO2q4ef0zowvwA44IADDjjggAMOOOCAA87gcQ5MOwANNNBAAw000EADDTTQQDMcmkejOwAHHHDAAQcccMABBxxwwCnfD3HaZiFO24rTZgMRpy2GIE5b7E2cNj6qLN40JWdiypmacmamnLkpZ2HKWZpyVqacxtfupSBXo5Or0snV6eQqdXK1OrlqnVy9Tq5iJ1ezK1ezK9td7Wp25Wp21anZ7QVpjahyP5oQE75D5XY0ISY89+VuNCEmPPPlZjQhJjzvghdNyTH1OB5jghRNyTFVOZ5hghFNyTG1OR5ggg5NuQdNfY6nl+BCU3JMfY5HV7kIrREjeNCUnPDtESxoSk543AUHmpITHnfBgKbkhMdd8Z9JQa5GxxNMkZ9JQa5Sx0NMMZ9JQa5ex3NM0Z5JN6Or2fEoU5xnUpCr2fE0Q3iG8Azh2T1ChGf1QniG8AzhWWYhPEN41ulVITxr7N/h+QjPdhfCs+3q4eerDswLAA444IADDjjggAMOOOCAM3icA9MFQAMNNNBAAw000EADDTTQDIfm0WgKwAEHHHDAAQcccMABBxxwyvdDeLZZCM+2wrP5QIRnyyEIz5Z7FJ6NZybjmRA0cQVNXUEzV9DcFbRwBS1dQStX0AdfuFeSbN1OtnInW7uTrd7J1u9kK3iyNTzZKp5sHa9sHa9897et45Wt41W3jncRoe1mKSa08pz4XVJcaOU58S2g2NDKc+IbQPGhlefEp18yoglBrkZnxpskRROCXKXOzDbJiyYEuXqdGWySGk24GV3Nzkw1yY4mBLmanRlpiiBtN0cypAlB8VskOdKEoPjwS5Y0ISg+/JInTQiKD79mSlOSbN3OTDZNlqYk2eqdGW6aL01JsjU8M980ZZpyV9o6nhlxmjVNSbJ1PDPlEKchTkOcdo8QcVq9EKchTkOcllmI0xCndXpViNMa+3d4PuK03YU4bbt6+DmtA/MLgAMOOOCAAw444IADDjjgDB7nwLQD0EADDTTQQAMNNNBAAw00w6F5NLoDcMABBxxwwAEHHHDAAQec8v0Qp20W4rStOG0xEHHaagjitNXexGnz26+FlkpuXEETV9DUFTRzBc1dQQtX0NIVtHIFNb5/ryXZup1s5U62didbvZOt38lW8GRreLJVPNk6Xtk6Xvnub1vHK1vHq24dby9Oa2aVi9OUnPhdKhenKTnxLVAuTlNy4hugXJym5MSnXxCnSUGuRmfGmyBOk4Jcpc7MNkGcJgW5ep0ZbII4TboZXc3OTDVBnCYFuZqdGWnl4rRmjiBOk4Lit0gQp0lB8eEXxGlSUHz4BXGaFBQffkWcpiXZup2ZbIo4TUuy1Tsz3BRxmpZka3hmviniNO2utHU8M+IUcZqWZOt4ZsohTkOchjjtHiHitHohTkOchjgtsxCnIU7r9KoQpzX27/B8xGm7C3HadvXwc1oH5hcABxxwwAEHHHDAAQcccMAZPM6BaQeggQYaaKCBBhpooIEGGmiGQ/NodAfggAMOOOCAAw444IADDjjl+yFO2yzEaVtx2nIQ4rRqPD58cVoNuS9x2viosnjTlJyJKWdqypmZcuamnIUpZ2nKWZlyGl+7l4JcjU6uSidXp5Or1MnV6uSqdXL1OrmKnVzNrlzNrmx3tavZlavZVadmtxekNaLK/WhCTPgOldvRhJjw3Je70YSY8MyXm9GEmPC8C140JcfU43iMCVI0JcdU5XiGCUY0JcfU5niACTo05R409TmeXoILTckx9TkeXeUitEaM4EFTcsK3R7CgKTnhcRccaEpOeNwFA5qSEx53xX8mBbkaHU8wRX4mBblKHQ8xxXwmBbl6Hc8xRXsm3YyuZsejTHGeSUGuZsfTDOEZwjOEZ/cIEZ7VC+EZwjOEZ5mF8AzhWadXhfCssX+H5yM8210Iz7arh5+vOjAvADjggAMOOOCAAw444IADzuBxDkwXAA000EADDTTQQAMNNNBAMxyaR6MpAAcccMABBxxwwAEHHHDAKd8P4dlmITzbCs9WAxGepSEIz9LehGdpOj4a76w0tfjPjLGTfmKn/cTO+omd9xO76Cd22U/sqp/Yxtf9nbk9nbPU00FLPZ201NNRSz2dtdTTYUs9nbbU03FLPZ23qqfzVvU113o6b1VP561Szlt7sVwuudwz50tt++6WW+h8qW1vsnJHnS+17S1WbrDzpba9wQS/nTG2n9PV+uOCIMMzxvZzwFp/VhDMecbYfs5Y6w8KgmbPOBX6OWWtPyUITj5jbD+nrPVHhHKBXy5V8PkZY9u+tYLtzxjb9gITXIDG2LYXmGAKNMa2vcAUj6Azt6dz1vqTgiIddOb2dNRaf1hQDIXO3J5OW+vPC4rO0DknejpvrT8yKO5DZ25P5631pwZEiYgSESXeI0SUWC9EiYgSESVmFqJERImdXhWixMb+HZ6PKHF3IUrcrh5+LvPAfCLggAMOOOCAAw444IADDjiDxzkwzQg00EADDTTQQAMNNNBAA81waB6N3gQccMABBxxwwAEHHHDAAad8v7+BKPHP65/erC+Pr99erkdPv/wIb+JheRPXlz+fvlyP/uO4bt4fLy7ejOo/sPrnnKfjLweiUKyGoFCs9qZQnM2OJqudNZlZFIrG2Ek/sdN+Ymf9xM77iV30E7vsJ3bVT2zDdODM7emcpZ4OWurppKWejlrq6aylng5b6um0pZ6OW+rpvFU9nbeqr7nW03mrejpvlXLe2isUc8nlCkVfatt3t1yh6Ette5OVKxR9qW1vsXKFoi+17Q0mKBSNsf2crtYfFwSFojG2nwPW+rOCoFA0xvZzxlp/UBAUisap0M8pa/0pQVAoGmP7OWWtPyKUKxRzqYJC0Rjb9q0VFIrG2LYXmKBQNMa2vcAEhaIxtu0FpigUnbk9nbPWnxQUhaIzt6ej1vrDgqJQdOb2dNpaf15QFIrOOdHTeWv9kUFRKDpzezpvrT81oFBEoYhC8R4hCsV6oVBEoYhCMbNQKKJQ7PSqUCg29u/wfBSKuwuF4nb18BObB2YaAQcccMABBxxwwAEHHHDAGTzOgQlIoIEGGmiggQYaaKCBBhpohkPzaMQn4IADDjjggAMOOOCAAw445fuhUPz99XgVim/fvDl7N/rs9PJWnTgQZ+JkCM7Eyd6cibf/XCpnMuVMTDlTU87MlDM35SxMOUtTzsqU03AKSEGuRidXpZOr08lV6uRqdXLVOrl6nVzFTq5mV65mV7a72tXsytXsqlOz27v8GlHl8j4hJnyHyvV8Qkx47ssFfEJMeObLFXtCTHjeBYmekmPqcTzGBC+ekmOqcjzDBNWdkmNqczzABHudcg+a+hxPL0FIp+SY+hyPrnLHXCNGkMopOeHbI2jjlJzwuAtiOCUnPO6C+k3JCY+7IneTglyNjieY4muTglyljoeYomCTgly9jueYYlWTbkZXs+NRpojSpCBXs+Npdi/o3y5PLy5Pr9+N0uj56Ok3b88/qi1U8+f/8/j8+Tg9v/3nz9cvn09SNObGjf9H77PPptPVyrBF1f8Wk/63mPa/xaz/Leb9b7Hof4tl/1us+t+iMdn72mMP5zvzL2Z9e8T/Zsu3R/wvvXx7xP+m17fHHg552sMpT3s45pl/q+ybf/G/cPbtEf+7aN8eezjn1R4meVU2yqvbPY6voz3G7f4adzKpquXcsEX8scq2RfyHYdsi/rOwbRF/rLJtEd+4ti3iC9e2RXzf2raIP1bZtsh8rPLtEX+s8u0RX7e+PeKPVb494o9Vvj3ij1W+PfZwyDMfq3x77OGYZz5W+eZf/LHKt8c+5vgeznnmBwN8e5Sd80m9x5eXp8Ee1ardv61KabGYTAxbxB+rbFvEH6tsW8Qfq2xbxB+rbFvEN65ti/jCtW0R37e2LeLr1rZF5gcCfXvE161vj/i69e0RX7e+PeLr1rdH/LHKt0f8I4u+PeKfZvTtEf+go2+PPZzzzMcq3x57OOeZj1W+PfZwzjMfq3J7TOs9/vz6bbTHst3Hqvp/cWn2T4Yt4o9Vti3ij1W2LeKPVbYt4o9Vti3ij1W2LeKPVbYt4o9Vti3i69a2ReZjlW+P+Lr17RFft7494uvWt0d83fr2iD9W+faIP1b59og/Vvn2iD9W+fbYwznPfKzy7bGHc575WOXbYw/nPPOxKrfHrN7jP9Yn0R6Ldh+rPv/8xYvFwrBF/LHKtkX8scq2RfyxyrZF/LHKtkX8scq2RfyxyrZF/LHKtkV83dq2yHys8u0RX7e+PeLr1rdHfN369oivW98e8ccq3x7xxyrfHvHHKt8e8ccq3x57OOeZj1W+PfZwzjMfq3x77OGcZz5W5faY3350e7uO9pi3+1j14sV8btki/lhl2yL+WGXbIv5YZdsi/lhl2yL+WGXbIv5YZdsi/lhl2yK+bm1bZD5W+faIr1vfHvF169sjvm59e8TXrW+P+GOVb4/4Y5Vvj/hjlW+P+GOVb489nPPMxyrfHns455mPVb499nDOMx+rcnss6j3+dBH9WHw1a/exarmsqtnMsEX8scq2RfyxyrZF/LHKtkX8scq2RfyxyrZF/LHKtkX8scq2Rc47ZdoiK1tz7RFft749ciIr1x45x5Vrj5z+yrVHzvnm2iOng3PtkTPFufbISeRce+zhnGfVc6499nDOs8I61x57OOdZzd37Pf7SxvC60TCPPh2dr3+5M8jeimOfXv386tmtAfZBVeydy/lqff1PF2/PT66ezsbPRinNno0m9T9Vs3a62V9vMLYe6pOTF8fX61cXl+8++/X06r0Jefv6WwijbwK+ujxZX379thYTt/6NNce7Jsef1sdXby/X7zFqt/Lmfe/ZyM3DPMzDPMzDPMzDPMzDPMzDPMzDPMzDPMzDPMzDPMzDPMzDPMzDPMzDPMzDPMzDPMzDPMzDPMzDPMzDPMzDPMzDPMzDPMzDPMzDPMzDPMzDPMzDPMzD/189/O7o4uf15eXpyfpPx/UXa9PRWPy+av3V2KvmV2O/WV+erq82X6998uzuC8Rvzi6uj85Oz9cPfkX26ve+p/vwN2uvjm7/p+ffXJwdX59enN9APbm6Xr95/v36h4vL9ZN233z+4/rV+vyk+YLe/9rT+fjZaFJ/c3lcf5G5/o8nZ+sfrmuwB6LvYo++e7W+/uL8un5/brb44e35y1vSpx+N/vOBiDvC9fZ3f/vgd7nrdfrD6On169Oro6vbP5V2G9Vr5zcd3bx/Xxy/fP30/wF3TbvDr786fsO+yf3uzcXVaR34+c0vt3k1d6uO+R2qy4tfuiHdYZ2en6zr8/A8Pev4u+/Wj6W/8YfT9Vndt6eb9/T9OXl1efH2zfpk9Hd/N/qvm1//9ei718dXm++/1wfso91H3/3uozdvyNHxq1df1nscna3PX12/Hv3jqBr9j9GTz87Onow+aT7j6uz05frp8/TRt+O/fPTgebv3Si4uR09/vHkp438Y/Xizzaaqm33rX/v7mxun+x9Qveoab/K+/fEvR39dvxt9+umn79+8ssTb1M0f+49dX+rd+v5yffzXkt/8W8ff0/X59fu1eXWf1rWuy7Bpyq3I4ei746ur01fn65MXtSLi6tvbd/IvZW/l3R/0m7dXr5+W/lnc/JF+8v7Ps/wknZ190uZVHtXPLN3l6vry4q/rdvu8f27pThdvjl+eXr9rt9XmycWv6naLu61KU+4ukua1UnI8Ol8+9bo7zs2LZ/R8lLqmdTlu7Vl/e3Y7VVs9/7eHPlPU6+OPR//2738e/Z+v/v3r0Tdfff3nf/1f/zz641f//K8vRv/yxddftAv48ubWXv96XH9EG11fjK4uLq9H529/uunBy9Gt0uRqdHz18ubDy+n5qxaJd+99nbMzmY+fjb5vf7lcrq/fXp6P3hxfXq2/PLs4vn56XF/5H938Ue782ve3v9bqzXz4I9rOtpuX8FDwb/2aXrafP2+P++1hf/qHk/UPx2/PrkdvLi9u7rD1H56N/vDflssXL7744g89i2fAAQcccMABBxxwwAEHHHD+/8QZXb396eb/BR6drOtfHJ0cv6uJLtcn0EADDTTQQAMNNNBAAw000ORpfrn90awPaL4/e7sGBxxwwAEHHHDAAQcccMABpwRn+78bmOr/3cBv3kb/u4GTdPs3bJ99Np2uVpBCCimkkEIKKaSQQgoppJBCCukwSKtb0uPriHR8SzqZVNVyDimkkEIKKaSQQgoppJBCCimkkA6DdFKTfnl5GpBWq1vSlBaLyQRSSCGFFFJIIYUUUkghhRRSSCEdBum0Jv3z67cR6fKWdHWzZv8EKaSQQgoppJBCCimkkEIKKaSQDoN0VpP+x/okIl3ckn7++YsXiwWkkEIKKaSQQgoppJBCCimkkEI6DNL57b+ZeLuOSOe3pC9ezOeQQgoppJBCCimkkEIKKaSQQgrpUEgXNemfLiKzYDW7JV0uq2o2gxRSSCGFFFJIIYUUUkghhRRSSPdGeodycnn8y9MHw349uj69Plt/8/r4zfroev3r9dM//MvF28urhzHe3f+dn5/+tD6/Or04P1tf3SY8EPHxx6PPTk5Gx6PbpNEvp9evR1cXP61HJ5MHfufVz6+Ojt+8WZ+fPH1S7/3kowd+w906Or6+vnz65Ncnz0bzccff9O7mN1Xtf9PV9buz9Xu858fnL19fXN78/idn6x860G4yfrg4v37+y/r01evrOuP7i7OT9hnv/2z+92f/+/0b/PX69fr4evTVy5ejb16+/sNHuT+kf/z46uXl6Zvr/x4+5x8/Pjn9+fcfDn9PHHaTNTo9+fTJy7rBL25e9PHp+fryu2o8fTK6fSs+fXJyevXm7PjdJ6fnZzePPf/+7OLlX//hSQx4k/r+NYyu3725+f31u/Hxj8c/H7//1ezvrNfPx5d120afjk5Of3pztj46X//yzc+vnj75b78D+Ww0HY9v/+PB41PnnhxfH98Ef/ufT86Ov1+fPfnkycn6h+O3Z9ejN5cXP5yerZ88e//Id78++SQdjZ89+fn47O36ySfz1dFqZy1Xz568rO+cm4Sba+TFiy++ePLbs1apVS+pk15Sp72kznpJnfeSuuglddlL6qqX1DTuJ7af05X6OV6pn/OV+jlgqZ8Tlvo5YqmfM5b6OWSpn1NW9XPKqp5mWD+nrOrnlFXCKRtdvf3pp8b/jHfBJ4TL9UmH0JbvbbfQlu9st9CW72u30JZ3V7fQljdXt9CW91a30Ja3VrfQlndWt9C2Hww6pvZyptp+LOiY2supavuhoGNqL+eq7UeCjqm9nKy2Hwg6pvZyttp+HOiY2s+86uVstf0s0DG19Gz9cnp+rX4M+L5+QvvUlm9rx9SWb2vH1JZva8fUlldWx9SWV1bH1JZXVsfUlldWx9SWV1bH1LafB7rG9nO62n4i6Brbz/lq+5mga2w/J6ztp4Kusf2csbafC7rG9nPK2n4y6Brb0wzr55S1/XDQNbbTKftLm79w2Pzd4OjT0fn6l7u/0Lj9e4ynVz+/enb7FxIP/s3F3V8wXq2v/+ni7fnJ1dPZ+Nkopdmz0aT+p2rW7m8/fr3B2P696cnJi+Pr9auLy3ef/Xp69f4v6LZvRYu/xbwJ+OryZH359dv678ta/8aa412T40/r46u3l+v3GPVf+W3+CNS/l739i6TmVt+sL0/XVxvcm502fyBvzi6uj+q/3Xpwy6vfe90Pk14d3fbuzcXZ8fXpxfkN1JOr6/Wb59+vf7i4XD9p16Q/rl+tz0+aL+j9rz2d37RgUjeh/suwVP/H5q89H/wb4bvYo+9era+/OL+u35+bLX54e/7ylvTpR6P/bPH3njXhevu7v33wbNTr9IfR0+vXp1c3va5/X7uN6rXzm45u3r8vjl++fvr/gLum3eFv/m5wk/vdm4ur0zrw85tfbvNq7lYd8ztUlxe/dEO6wzo9P1nXB/d5etbxd9+tH0t/4w+n67O6b0837+n7c/Lq8uLtm/XJ6O/+bvRfN7/+69F3r4+vNvdJfcA+2n303e8+evOGHB2/evVlvcfR2fr81fXr0T+OqtH/GD357OzsyeiT5jOuzk5frp8+Tx99O/7LRw+et3uv5OJy9PTHm5cy/ofRjzfbbKq62bf+tb//dJS6/wHVq67xJu/bH/9y9Nf1zfX26afv37yyxNvUzR/7j11f6t36/nJ9/NeS3/xbx9/T9fn1+7V5dZ/Wta7LsGnK7WA8+u79z/SsT25/qufq29t38i9lb+XdH/Sbt1evn5b+Wdz8kX7y/s+z/CSdnX3S5lUe1c8s3eXq+vLir+t2+7x/bulOF2+OX55ev2u31ebJxa/qdou7rUpT7i6S5rVScjw6Xz71ujvOzYtn9HyUuqZ1OW7tWX97djtVWz3/t4c+U9Tr449H//bvfx79n6/+/evRN199/ed//V//PPrjV//8ry9G//LF11+0C/jy5tZe/3pcf0QbXV+Mri5uPkifv/3ppgcvR7cfEa9Gx1cvbz68nJ6/apF4997XOTuT+fjZ6Pv2l8vl+vrt5fnozfHl1frLs4vj66fH9ZX/0c0f5c6vfX/7a63ezIc/ou1su3kJDwX/9jf42csP/gJ28wOW9V+o/k1+FBQccMABBxxwwAEHHHDAAWfwOPd/wKUmulyfQAMNNNBAAw000EADDTTQQJOnufcjgTVN/SN+4IADDjjggAMOOOCAAw444PwNjYd/Xv/0Zn15fP32cj16+uVHOA8Pynn4H8d14/5lfftfn/30/en6/HpU/5HV5sP1ydub9//5aDH+ciASxNkQJIizvUkQb796WiphMuVMTDlTU87MlDM35SxMOUtTzsqU07ALSEGuRidXpZOr08lV6uRqdXLVOrl6nVzFTq5mV65mV7a72tXsytXsqlOz20v7GlHlmj4hJnyHylV8Qkx47st1e0JMeObLlXpCTHjeBW2ekmPqcTzGBBmekmOqcjzDBMWdkmNqczzABHGdcg+a+hxPL0FHp+SY+hyPrnLJXCNG0MopOeHbI6jjlJzwuAt6OCUnPO6CAk7JCY+7onmTglyNjieYIm+TglyljoeYomSTgly9jueYIlqTbkZXs+NRpujTpCBXs+NphhRtEFI0HuZhHuZhHuZhHuZhHuZhHuZhHuZhHuZhHj6kh98dXfy8vrw8PVn/6bj+F1XpaIwUf+eVIMXfLqT4nRZSfKT4HRZS/A8XUvwPF1L8jgspPlL8311I8cEBBxxwwAEHHHDAAQcccMAZglISGmiggQYaaKCBBhpooIFmODSPRmUJDjjggAMOOOCAAw444IBTvt/fQIr/+elP6/Or04vzs/XVFUr8w1LiX1z+dfTFDz+cvjxdn798txXh71eBv3n2B4/s/t93//z+v7fpm3/Y/tf3Fyfv6v9+ff3T2X//L/8XpfY9Aw=="
               },
               {
                  "name" : "annual_peak_electric_demand",
                  "units" : "kW",
                  "value" : 66.272800000000004
               },
               {
                  "name" : "first_year_capital_cost",
                  "units" : "$",
                  "value" : 0
               },
               {
                  "name" : "annual_utility_cost",
                  "units" : "$",
                  "value" : 66603.529999999999
               },
               {
                  "name" : "total_lifecycle_cost",
                  "units" : "$",
                  "value" : 1173248.4199999999
               }
            ],
            "step_warnings" : []
         }
      }
   ],
   "updated_at" : "20170710T184114Z",
   "weather_file" : "USA_CO_Denver.Intl.AP.725650_TMY3.epw"
}
