{
   "completed_at" : "20170710T192856Z",
   "completed_status" : "Success",
   "created_at" : "2017-07-10 19:21:20 +0000",
   "current_step" : 5,
   "description" : "",
   "eplusout_err" : "Program Version,EnergyPlus, Version 8.7.0-78a111df4a, YMD=2017.07.10 19:25,IDD_Version 8.7.0\n   ************* IDF Context for following error/warning message:\n   ************* Note -- lines truncated at 300 characters, if necessary...\n   *************      5 Building,\n   ************* indicated Name=NECB 2011-PrimarySchool-NECB HDD Method-CAN_MB_Winnipeg.718520_CWEC.epw created: 2017-07-10 19:21:26 +0000\n   ************* Only last 1 lines before error line shown.....\n   *************      6   NECB 2011-PrimarySchool-NECB HDD Method-CAN_MB_Winnipeg.718520_CWEC.epw created: 2017-07-10 19:21:26 +0000, !- Name\n   ** Warning ** IP: IDF line~6 Alpha Argument length exceeds maximum, will be truncated=  NECB 2011-PrimarySchool-NECB HDD Method-CAN_MB_Winnipeg.718520_CWEC.epw created: 2017-07-10 19:21:26 +000\n   **   ~~~   ** Will be processed as Alpha=NECB 2011-PRIMARYSCHOOL-NECB HDD METHOD-CAN_MB_WINNIPEG.718520_CWEC.EPW CREATED: 2017-07-10 19:21:26 +0000\n   ************* IDF Context for following error/warning message:\n   ************* Note -- lines truncated at 300 characters, if necessary...\n   *************   1050 Schedule:Week:Daily,\n   ************* indicated Name=Schedule:Week:Daily {06f38c82-74b7-48ec-83db-24549cfd7284}\n   ************* Only last 10 lines before error line shown.....\n   *************   1051   Schedule:Week:Daily {06f38c82-74b7-48ec-83db-24549cfd7284}, !- Name\n   *************   1052   Sp-Cafeteria_ZN_1_FLR_1 Sys-3 Flr-1 Sch-C HPlcmt-north ZN NECB System 3 PSZ Occ Sch Sunday, !- Sunday Schedule:Day Name\n   *************   1053   Sp-Cafeteria_ZN_1_FLR_1 Sys-3 Flr-1 Sch-C HPlcmt-north ZN NECB System 3 PSZ Occ Sch Monday, !- Monday Schedule:Day Name\n   *************   1054   Sp-Cafeteria_ZN_1_FLR_1 Sys-3 Flr-1 Sch-C HPlcmt-north ZN NECB System 3 PSZ Occ Sch Tuesday, !- Tuesday Schedule:Day Name\n   *************   1055   Sp-Cafeteria_ZN_1_FLR_1 Sys-3 Flr-1 Sch-C HPlcmt-north ZN NECB System 3 PSZ Occ Sch Wednesday, !- Wednesday Schedule:Day Name\n   *************   1056   Sp-Cafeteria_ZN_1_FLR_1 Sys-3 Flr-1 Sch-C HPlcmt-north ZN NECB System 3 PSZ Occ Sch Thursday, !- Thursday Schedule:Day Name\n   *************   1057   Sp-Cafeteria_ZN_1_FLR_1 Sys-3 Flr-1 Sch-C HPlcmt-north ZN NECB System 3 PSZ Occ Sch Friday, !- Friday Schedule:Day Name\n   *************   1058   Sp-Cafeteria_ZN_1_FLR_1 Sys-3 Flr-1 Sch-C HPlcmt-north ZN NECB System 3 PSZ Occ Sch Saturday, !- Saturday Schedule:Day Name\n   *************   1059   Sp-Cafeteria_ZN_1_FLR_1 Sys-3 Flr-1 Sch-C HPlcmt-north ZN NECB System 3 PSZ Occ Sch Default, !- Holiday Schedule:Day Name\n   *************   1060   Sp-Cafeteria_ZN_1_FLR_1 Sys-3 Flr-1 Sch-C HPlcmt-north ZN NECB System 3 PSZ Occ Sch Summer Design Day, !- SummerDesignDay Schedule:Day Name\n   ** Warning ** IP: IDF line~1060 Alpha Argument length exceeds maximum, will be truncated=  Sp-Cafeteria_ZN_1_FLR_1 Sys-3 Flr-1 Sch-C HPlcmt-north ZN NECB System 3 PSZ Occ Sch Summer Design Da\n   **   ~~~   ** Will be processed as Alpha=SP-CAFETERIA_ZN_1_FLR_1 SYS-3 FLR-1 SCH-C HPLCMT-NORTH ZN NECB SYSTEM 3 PSZ OCC SCH SUMMER DESIGN DAY\n   ************* IDF Context for following error/warning message:\n   ************* Note -- lines truncated at 300 characters, if necessary...\n   *************   1050 Schedule:Week:Daily,\n   ************* indicated Name=Schedule:Week:Daily {06f38c82-74b7-48ec-83db-24549cfd7284}\n   ************* Only last 10 lines before error line shown.....\n   *************   1052   Sp-Cafeteria_ZN_1_FLR_1 Sys-3 Flr-1 Sch-C HPlcmt-north ZN NECB System 3 PSZ Occ Sch Sunday, !- Sunday Schedule:Day Name\n   *************   1053   Sp-Cafeteria_ZN_1_FLR_1 Sys-3 Flr-1 Sch-C HPlcmt-north ZN NECB System 3 PSZ Occ Sch Monday, !- Monday Schedule:Day Name\n   *************   1054   Sp-Cafeteria_ZN_1_FLR_1 Sys-3 Flr-1 Sch-C HPlcmt-north ZN NECB System 3 PSZ Occ Sch Tuesday, !- Tuesday Schedule:Day Name\n   *************   1055   Sp-Cafeteria_ZN_1_FLR_1 Sys-3 Flr-1 Sch-C HPlcmt-north ZN NECB System 3 PSZ Occ Sch Wednesday, !- Wednesday Schedule:Day Name\n   *************   1056   Sp-Cafeteria_ZN_1_FLR_1 Sys-3 Flr-1 Sch-C HPlcmt-north ZN NECB System 3 PSZ Occ Sch Thursday, !- Thursday Schedule:Day Name\n   *************   1057   Sp-Cafeteria_ZN_1_FLR_1 Sys-3 Flr-1 Sch-C HPlcmt-north ZN NECB System 3 PSZ Occ Sch Friday, !- Friday Schedule:Day Name\n   *************   1058   Sp-Cafeteria_ZN_1_FLR_1 Sys-3 Flr-1 Sch-C HPlcmt-north ZN NECB System 3 PSZ Occ Sch Saturday, !- Saturday Schedule:Day Name\n   *************   1059   Sp-Cafeteria_ZN_1_FLR_1 Sys-3 Flr-1 Sch-C HPlcmt-north ZN NECB System 3 PSZ Occ Sch Default, !- Holiday Schedule:Day Name\n   *************   1060   Sp-Cafeteria_ZN_1_FLR_1 Sys-3 Flr-1 Sch-C HPlcmt-north ZN NECB System 3 PSZ Occ Sch Summer Design Day, !- SummerDesignDay Schedule:Day Name\n   *************   1061   Sp-Cafeteria_ZN_1_FLR_1 Sys-3 Flr-1 Sch-C HPlcmt-north ZN NECB System 3 PSZ Occ Sch Winter Design Day, !- WinterDesignDay Schedule:Day Name\n   ** Warning ** IP: IDF line~1061 Alpha Argument length exceeds maximum, will be truncated=  Sp-Cafeteria_ZN_1_FLR_1 Sys-3 Flr-1 Sch-C HPlcmt-north ZN NECB System 3 PSZ Occ Sch Winter Design Da\n   **   ~~~   ** Will be processed as Alpha=SP-CAFETERIA_ZN_1_FLR_1 SYS-3 FLR-1 SCH-C HPLCMT-NORTH ZN NECB SYSTEM 3 PSZ OCC SCH WINTER DESIGN DAY\n   ************* IDF Context for following error/warning message:\n   ************* Note -- lines truncated at 300 characters, if necessary...\n   *************   1081 Schedule:Day:Interval,\n   ************* indicated Name=Sp-Cafeteria_ZN_1_FLR_1 Sys-3 Flr-1 Sch-C HPlcmt-north ZN NECB System 3 PSZ Occ Sch Summer Design Day\n   ************* Only last 1 lines before error line shown.....\n   *************   1082   Sp-Cafeteria_ZN_1_FLR_1 Sys-3 Flr-1 Sch-C HPlcmt-north ZN NECB System 3 PSZ Occ Sch Summer Design Day, !- Name\n   ** Warning ** IP: IDF line~1082 Alpha Argument length exceeds maximum, will be truncated=  Sp-Cafeteria_ZN_1_FLR_1 Sys-3 Flr-1 Sch-C HPlcmt-north ZN NECB System 3 PSZ Occ Sch Summer Design Da\n   **   ~~~   ** Will be processed as Alpha=SP-CAFETERIA_ZN_1_FLR_1 SYS-3 FLR-1 SCH-C HPLCMT-NORTH ZN NECB SYSTEM 3 PSZ OCC SCH SUMMER DESIGN DAY\n   ************* IDF Context for following error/warning message:\n   ************* Note -- lines truncated at 300 characters, if necessary...\n   *************   1088 Schedule:Day:Interval,\n   ************* indicated Name=Sp-Cafeteria_ZN_1_FLR_1 Sys-3 Flr-1 Sch-C HPlcmt-north ZN NECB System 3 PSZ Occ Sch Winter Design Day\n   ************* Only last 1 lines before error line shown.....\n   *************   1089   Sp-Cafeteria_ZN_1_FLR_1 Sys-3 Flr-1 Sch-C HPlcmt-north ZN NECB System 3 PSZ Occ Sch Winter Design Day, !- Name\n   ** Warning ** IP: IDF line~1089 Alpha Argument length exceeds maximum, will be truncated=  Sp-Cafeteria_ZN_1_FLR_1 Sys-3 Flr-1 Sch-C HPlcmt-north ZN NECB System 3 PSZ Occ Sch Winter Design Da\n   **   ~~~   ** Will be processed as Alpha=SP-CAFETERIA_ZN_1_FLR_1 SYS-3 FLR-1 SCH-C HPLCMT-NORTH ZN NECB SYSTEM 3 PSZ OCC SCH WINTER DESIGN DAY\n   ************* IDF Context for following error/warning message:\n   ************* Note -- lines truncated at 300 characters, if necessary...\n   *************   1438 Schedule:Week:Daily,\n   ************* indicated Name=Schedule:Week:Daily {7733f8ee-6b71-4e95-a087-3e75cfac219c}\n   ************* Only last 10 lines before error line shown.....\n   *************   1439   Schedule:Week:Daily {7733f8ee-6b71-4e95-a087-3e75cfac219c}, !- Name\n   *************   1440   Sp-Computer_Class_ZN_1_FLR_1 Sys-3 Flr-1 Sch-D HPlcmt-north ZN NECB System 3 PSZ Occ Sch Sunday, !- Sunday Schedule:Day Name\n   *************   1441   Sp-Computer_Class_ZN_1_FLR_1 Sys-3 Flr-1 Sch-D HPlcmt-north ZN NECB System 3 PSZ Occ Sch Monday, !- Monday Schedule:Day Name\n   *************   1442   Sp-Computer_Class_ZN_1_FLR_1 Sys-3 Flr-1 Sch-D HPlcmt-north ZN NECB System 3 PSZ Occ Sch Tuesday, !- Tuesday Schedule:Day Name\n   *************   1443   Sp-Computer_Class_ZN_1_FLR_1 Sys-3 Flr-1 Sch-D HPlcmt-north ZN NECB System 3 PSZ Occ Sch Wednesday, !- Wednesday Schedule:Day Name\n   *************   1444   Sp-Computer_Class_ZN_1_FLR_1 Sys-3 Flr-1 Sch-D HPlcmt-north ZN NECB System 3 PSZ Occ Sch Thursday, !- Thursday Schedule:Day Name\n   *************   1445   Sp-Computer_Class_ZN_1_FLR_1 Sys-3 Flr-1 Sch-D HPlcmt-north ZN NECB System 3 PSZ Occ Sch Friday, !- Friday Schedule:Day Name\n   *************   1446   Sp-Computer_Class_ZN_1_FLR_1 Sys-3 Flr-1 Sch-D HPlcmt-north ZN NECB System 3 PSZ Occ Sch Saturday, !- Saturday Schedule:Day Name\n   *************   1447   Sp-Computer_Class_ZN_1_FLR_1 Sys-3 Flr-1 Sch-D HPlcmt-north ZN NECB System 3 PSZ Occ Sch Default, !- Holiday Schedule:Day Name\n   *************   1448   Sp-Computer_Class_ZN_1_FLR_1 Sys-3 Flr-1 Sch-D HPlcmt-north ZN NECB System 3 PSZ Occ Sch Summer Design Day, !- SummerDesignDay Schedule:Day Name\n   ** Warning ** IP: IDF line~1448 Alpha Argument length exceeds maximum, will be truncated=  Sp-Computer_Class_ZN_1_FLR_1 Sys-3 Flr-1 Sch-D HPlcmt-north ZN NECB System 3 PSZ Occ Sch Summer Design Da\n   **   ~~~   ** Will be processed as Alpha=SP-COMPUTER_CLASS_ZN_1_FLR_1 SYS-3 FLR-1 SCH-D HPLCMT-NORTH ZN NECB SYSTEM 3 PSZ OCC SCH SUMMER DESIGN DAY\n   ************* IDF Context for following error/warning message:\n   ************* Note -- lines truncated at 300 characters, if necessary...\n   *************   1438 Schedule:Week:Daily,\n   ************* indicated Name=Schedule:Week:Daily {7733f8ee-6b71-4e95-a087-3e75cfac219c}\n   ************* Only last 10 lines before error line shown.....\n   *************   1440   Sp-Computer_Class_ZN_1_FLR_1 Sys-3 Flr-1 Sch-D HPlcmt-north ZN NECB System 3 PSZ Occ Sch Sunday, !- Sunday Schedule:Day Name\n   *************   1441   Sp-Computer_Class_ZN_1_FLR_1 Sys-3 Flr-1 Sch-D HPlcmt-north ZN NECB System 3 PSZ Occ Sch Monday, !- Monday Schedule:Day Name\n   *************   1442   Sp-Computer_Class_ZN_1_FLR_1 Sys-3 Flr-1 Sch-D HPlcmt-north ZN NECB System 3 PSZ Occ Sch Tuesday, !- Tuesday Schedule:Day Name\n   *************   1443   Sp-Computer_Class_ZN_1_FLR_1 Sys-3 Flr-1 Sch-D HPlcmt-north ZN NECB System 3 PSZ Occ Sch Wednesday, !- Wednesday Schedule:Day Name\n   *************   1444   Sp-Computer_Class_ZN_1_FLR_1 Sys-3 Flr-1 Sch-D HPlcmt-north ZN NECB System 3 PSZ Occ Sch Thursday, !- Thursday Schedule:Day Name\n   *************   1445   Sp-Computer_Class_ZN_1_FLR_1 Sys-3 Flr-1 Sch-D HPlcmt-north ZN NECB System 3 PSZ Occ Sch Friday, !- Friday Schedule:Day Name\n   *************   1446   Sp-Computer_Class_ZN_1_FLR_1 Sys-3 Flr-1 Sch-D HPlcmt-north ZN NECB System 3 PSZ Occ Sch Saturday, !- Saturday Schedule:Day Name\n   *************   1447   Sp-Computer_Class_ZN_1_FLR_1 Sys-3 Flr-1 Sch-D HPlcmt-north ZN NECB System 3 PSZ Occ Sch Default, !- Holiday Schedule:Day Name\n   *************   1448   Sp-Computer_Class_ZN_1_FLR_1 Sys-3 Flr-1 Sch-D HPlcmt-north ZN NECB System 3 PSZ Occ Sch Summer Design Day, !- SummerDesignDay Schedule:Day Name\n   *************   1449   Sp-Computer_Class_ZN_1_FLR_1 Sys-3 Flr-1 Sch-D HPlcmt-north ZN NECB System 3 PSZ Occ Sch Winter Design Day, !- WinterDesignDay Schedule:Day Name\n   ** Warning ** IP: IDF line~1449 Alpha Argument length exceeds maximum, will be truncated=  Sp-Computer_Class_ZN_1_FLR_1 Sys-3 Flr-1 Sch-D HPlcmt-north ZN NECB System 3 PSZ Occ Sch Winter Design Da\n   **   ~~~   ** Will be processed as Alpha=SP-COMPUTER_CLASS_ZN_1_FLR_1 SYS-3 FLR-1 SCH-D HPLCMT-NORTH ZN NECB SYSTEM 3 PSZ OCC SCH WINTER DESIGN DAY\n   ************* IDF Context for following error/warning message:\n   ************* Note -- lines truncated at 300 characters, if necessary...\n   *************   1469 Schedule:Day:Interval,\n   ************* indicated Name=Sp-Computer_Class_ZN_1_FLR_1 Sys-3 Flr-1 Sch-D HPlcmt-north ZN NECB System 3 PSZ Occ Sch Summer Design Day\n   ************* Only last 1 lines before error line shown.....\n   *************   1470   Sp-Computer_Class_ZN_1_FLR_1 Sys-3 Flr-1 Sch-D HPlcmt-north ZN NECB System 3 PSZ Occ Sch Summer Design Day, !- Name\n   ** Warning ** IP: IDF line~1470 Alpha Argument length exceeds maximum, will be truncated=  Sp-Computer_Class_ZN_1_FLR_1 Sys-3 Flr-1 Sch-D HPlcmt-north ZN NECB System 3 PSZ Occ Sch Summer Design Da\n   **   ~~~   ** Will be processed as Alpha=SP-COMPUTER_CLASS_ZN_1_FLR_1 SYS-3 FLR-1 SCH-D HPLCMT-NORTH ZN NECB SYSTEM 3 PSZ OCC SCH SUMMER DESIGN DAY\n   ************* IDF Context for following error/warning message:\n   ************* Note -- lines truncated at 300 characters, if necessary...\n   *************   1476 Schedule:Day:Interval,\n   ************* indicated Name=Sp-Computer_Class_ZN_1_FLR_1 Sys-3 Flr-1 Sch-D HPlcmt-north ZN NECB System 3 PSZ Occ Sch Winter Design Day\n   ************* Only last 1 lines before error line shown.....\n   *************   1477   Sp-Computer_Class_ZN_1_FLR_1 Sys-3 Flr-1 Sch-D HPlcmt-north ZN NECB System 3 PSZ Occ Sch Winter Design Day, !- Name\n   ** Warning ** IP: IDF line~1477 Alpha Argument length exceeds maximum, will be truncated=  Sp-Computer_Class_ZN_1_FLR_1 Sys-3 Flr-1 Sch-D HPlcmt-north ZN NECB System 3 PSZ Occ Sch Winter Design Da\n   **   ~~~   ** Will be processed as Alpha=SP-COMPUTER_CLASS_ZN_1_FLR_1 SYS-3 FLR-1 SCH-D HPLCMT-NORTH ZN NECB SYSTEM 3 PSZ OCC SCH WINTER DESIGN DAY\n   ************* IDF Context for following error/warning message:\n   ************* Note -- lines truncated at 300 characters, if necessary...\n   *************   1753 Schedule:Day:Interval,\n   ************* indicated Name=Sp-Corner_Class_1_Pod_1_ZN_1_FLR_1 Sys-3 Flr-1 Sch-D HPlcmt-south ZN NECB System 3 PSZ Occ Sch Sunday\n   ************* Only last 1 lines before error line shown.....\n   *************   1754   Sp-Corner_Class_1_Pod_1_ZN_1_FLR_1 Sys-3 Flr-1 Sch-D HPlcmt-south ZN NECB System 3 PSZ Occ Sch Sunday, !- Name\n   ** Warning ** IP: IDF line~1754 Alpha Argument length exceeds maximum, will be truncated=  Sp-Corner_Class_1_Pod_1_ZN_1_FLR_1 Sys-3 Flr-1 Sch-D HPlcmt-south ZN NECB System 3 PSZ Occ Sch Sunda\n   **   ~~~   ** Will be processed as Alpha=SP-CORNER_CLASS_1_POD_1_ZN_1_FLR_1 SYS-3 FLR-1 SCH-D HPLCMT-SOUTH ZN NECB SYSTEM 3 PSZ OCC SCH SUNDAY\n   ************* IDF Context for following error/warning message:\n   ************* Note -- lines truncated at 300 characters, if necessary...\n   *************   1760 Schedule:Day:Interval,\n   ************* indicated Name=Sp-Corner_Class_1_Pod_1_ZN_1_FLR_1 Sys-3 Flr-1 Sch-D HPlcmt-south ZN NECB System 3 PSZ Occ Sch Monday\n   ************* Only last 1 lines before error line shown.....\n   *************   1761   Sp-Corner_Class_1_Pod_1_ZN_1_FLR_1 Sys-3 Flr-1 Sch-D HPlcmt-south ZN NECB System 3 PSZ Occ Sch Monday, !- Name\n   ** Warning ** IP: IDF line~1761 Alpha Argument length exceeds maximum, will be truncated=  Sp-Corner_Class_1_Pod_1_ZN_1_FLR_1 Sys-3 Flr-1 Sch-D HPlcmt-south ZN NECB System 3 PSZ Occ Sch Monda\n   **   ~~~   ** Will be processed as Alpha=SP-CORNER_CLASS_1_POD_1_ZN_1_FLR_1 SYS-3 FLR-1 SCH-D HPLCMT-SOUTH ZN NECB SYSTEM 3 PSZ OCC SCH MONDAY\n   ************* IDF Context for following error/warning message:\n   ************* Note -- lines truncated at 300 characters, if necessary...\n   *************   1775 Schedule:Day:Interval,\n   ************* indicated Name=Sp-Corner_Class_1_Pod_1_ZN_1_FLR_1 Sys-3 Flr-1 Sch-D HPlcmt-south ZN NECB System 3 PSZ Occ Sch Tuesday\n   ************* Only last 1 lines before error line shown.....\n   *************   1776   Sp-Corner_Class_1_Pod_1_ZN_1_FLR_1 Sys-3 Flr-1 Sch-D HPlcmt-south ZN NECB System 3 PSZ Occ Sch Tuesday, !- Name\n   ** Warning ** IP: IDF line~1776 Alpha Argument length exceeds maximum, will be truncated=  Sp-Corner_Class_1_Pod_1_ZN_1_FLR_1 Sys-3 Flr-1 Sch-D HPlcmt-south ZN NECB System 3 PSZ Occ Sch Tuesda\n   **   ~~~   ** Will be processed as Alpha=SP-CORNER_CLASS_1_POD_1_ZN_1_FLR_1 SYS-3 FLR-1 SCH-D HPLCMT-SOUTH ZN NECB SYSTEM 3 PSZ OCC SCH TUESDAY\n   ************* IDF Context for following error/warning message:\n   ************* Note -- lines truncated at 300 characters, if necessary...\n   *************   1790 Schedule:Day:Interval,\n   ************* indicated Name=Sp-Corner_Class_1_Pod_1_ZN_1_FLR_1 Sys-3 Flr-1 Sch-D HPlcmt-south ZN NECB System 3 PSZ Occ Sch Wednesday\n   ************* Only last 1 lines before error line shown.....\n   *************   1791   Sp-Corner_Class_1_Pod_1_ZN_1_FLR_1 Sys-3 Flr-1 Sch-D HPlcmt-south ZN NECB System 3 PSZ Occ Sch Wednesday, !- Name\n   ** Warning ** IP: IDF line~1791 Alpha Argument length exceeds maximum, will be truncated=  Sp-Corner_Class_1_Pod_1_ZN_1_FLR_1 Sys-3 Flr-1 Sch-D HPlcmt-south ZN NECB System 3 PSZ Occ Sch Wednesda\n   **   ~~~   ** Will be processed as Alpha=SP-CORNER_CLASS_1_POD_1_ZN_1_FLR_1 SYS-3 FLR-1 SCH-D HPLCMT-SOUTH ZN NECB SYSTEM 3 PSZ OCC SCH WEDNESDAY\n   ************* IDF Context for following error/warning message:\n   ************* Note -- lines truncated at 300 characters, if necessary...\n   *************   1805 Schedule:Day:Interval,\n   ************* indicated Name=Sp-Corner_Class_1_Pod_1_ZN_1_FLR_1 Sys-3 Flr-1 Sch-D HPlcmt-south ZN NECB System 3 PSZ Occ Sch Thursday\n   ************* Only last 1 lines before error line shown.....\n   *************   1806   Sp-Corner_Class_1_Pod_1_ZN_1_FLR_1 Sys-3 Flr-1 Sch-D HPlcmt-south ZN NECB System 3 PSZ Occ Sch Thursday, !- Name\n   ** Warning ** IP: IDF line~1806 Alpha Argument length exceeds maximum, will be truncated=  Sp-Corner_Class_1_Pod_1_ZN_1_FLR_1 Sys-3 Flr-1 Sch-D HPlcmt-south ZN NECB System 3 PSZ Occ Sch Thursda\n   **   ~~~   ** Will be processed as Alpha=SP-CORNER_CLASS_1_POD_1_ZN_1_FLR_1 SYS-3 FLR-1 SCH-D HPLCMT-SOUTH ZN NECB SYSTEM 3 PSZ OCC SCH THURSDAY\n   ************* IDF Context for following error/warning message:\n   ************* Note -- lines truncated at 300 characters, if necessary...\n   *************   1820 Schedule:Day:Interval,\n   ************* indicated Name=Sp-Corner_Class_1_Pod_1_ZN_1_FLR_1 Sys-3 Flr-1 Sch-D HPlcmt-south ZN NECB System 3 PSZ Occ Sch Friday\n   ************* Only last 1 lines before error line shown.....\n   *************   1821   Sp-Corner_Class_1_Pod_1_ZN_1_FLR_1 Sys-3 Flr-1 Sch-D HPlcmt-south ZN NECB System 3 PSZ Occ Sch Friday, !- Name\n   ** Warning ** IP: IDF line~1821 Alpha Argument length exceeds maximum, will be truncated=  Sp-Corner_Class_1_Pod_1_ZN_1_FLR_1 Sys-3 Flr-1 Sch-D HPlcmt-south ZN NECB System 3 PSZ Occ Sch Frida\n   **   ~~~   ** Will be processed as Alpha=SP-CORNER_CLASS_1_POD_1_ZN_1_FLR_1 SYS-3 FLR-1 SCH-D HPLCMT-SOUTH ZN NECB SYSTEM 3 PSZ OCC SCH FRIDAY\n   ************* IDF Context for following error/warning message:\n   ************* Note -- lines truncated at 300 characters, if necessary...\n   *************   1835 Schedule:Day:Interval,\n   ************* indicated Name=Sp-Corner_Class_1_Pod_1_ZN_1_FLR_1 Sys-3 Flr-1 Sch-D HPlcmt-south ZN NECB System 3 PSZ Occ Sch Saturday\n   ************* Only last 1 lines before error line shown.....\n   *************   1836   Sp-Corner_Class_1_Pod_1_ZN_1_FLR_1 Sys-3 Flr-1 Sch-D HPlcmt-south ZN NECB System 3 PSZ Occ Sch Saturday, !- Name\n   ** Warning ** IP: IDF line~1836 Alpha Argument length exceeds maximum, will be truncated=  Sp-Corner_Class_1_Pod_1_ZN_1_FLR_1 Sys-3 Flr-1 Sch-D HPlcmt-south ZN NECB System 3 PSZ Occ Sch Saturda\n   **   ~~~   ** Will be processed as Alpha=SP-CORNER_CLASS_1_POD_1_ZN_1_FLR_1 SYS-3 FLR-1 SCH-D HPLCMT-SOUTH ZN NECB SYSTEM 3 PSZ OCC SCH SATURDAY\n   ************* IDF Context for following error/warning message:\n   ************* Note -- lines truncated at 300 characters, if necessary...\n   *************   1842 Schedule:Week:Daily,\n   ************* indicated Name=Schedule:Week:Daily {7af7f625-d711-43b4-8993-a5688581b8c7}\n   ************* Only last 2 lines before error line shown.....\n   *************   1843   Schedule:Week:Daily {7af7f625-d711-43b4-8993-a5688581b8c7}, !- Name\n   *************   1844   Sp-Corner_Class_1_Pod_1_ZN_1_FLR_1 Sys-3 Flr-1 Sch-D HPlcmt-south ZN NECB System 3 PSZ Occ Sch Sunday, !- Sunday Schedule:Day Name\n   ** Warning ** IP: IDF line~1844 Alpha Argument length exceeds maximum, will be truncated=  Sp-Corner_Class_1_Pod_1_ZN_1_FLR_1 Sys-3 Flr-1 Sch-D HPlcmt-south ZN NECB System 3 PSZ Occ Sch Sunda\n   **   ~~~   ** Will be processed as Alpha=SP-CORNER_CLASS_1_POD_1_ZN_1_FLR_1 SYS-3 FLR-1 SCH-D HPLCMT-SOUTH ZN NECB SYSTEM 3 PSZ OCC SCH SUNDAY\n   ************* IDF Context for following error/warning message:\n   ************* Note -- lines truncated at 300 characters, if necessary...\n   *************   1842 Schedule:Week:Daily,\n   ************* indicated Name=Schedule:Week:Daily {7af7f625-d711-43b4-8993-a5688581b8c7}\n   ************* Only last 3 lines before error line shown.....\n   *************   1843   Schedule:Week:Daily {7af7f625-d711-43b4-8993-a5688581b8c7}, !- Name\n   *************   1844   Sp-Corner_Class_1_Pod_1_ZN_1_FLR_1 Sys-3 Flr-1 Sch-D HPlcmt-south ZN NECB System 3 PSZ Occ Sch Sunday, !- Sunday Schedule:Day Name\n   *************   1845   Sp-Corner_Class_1_Pod_1_ZN_1_FLR_1 Sys-3 Flr-1 Sch-D HPlcmt-south ZN NECB System 3 PSZ Occ Sch Monday, !- Monday Schedule:Day Name\n   ** Warning ** IP: IDF line~1845 Alpha Argument length exceeds maximum, will be truncated=  Sp-Corner_Class_1_Pod_1_ZN_1_FLR_1 Sys-3 Flr-1 Sch-D HPlcmt-south ZN NECB System 3 PSZ Occ Sch Monda\n   **   ~~~   ** Will be processed as Alpha=SP-CORNER_CLASS_1_POD_1_ZN_1_FLR_1 SYS-3 FLR-1 SCH-D HPLCMT-SOUTH ZN NECB SYSTEM 3 PSZ OCC SCH MONDAY\n   ************* IDF Context for following error/warning message:\n   ************* Note -- lines truncated at 300 characters, if necessary...\n   *************   1842 Schedule:Week:Daily,\n   ************* indicated Name=Schedule:Week:Daily {7af7f625-d711-43b4-8993-a5688581b8c7}\n   ************* Only last 4 lines before error line shown.....\n   *************   1843   Schedule:Week:Daily {7af7f625-d711-43b4-8993-a5688581b8c7}, !- Name\n   *************   1844   Sp-Corner_Class_1_Pod_1_ZN_1_FLR_1 Sys-3 Flr-1 Sch-D HPlcmt-south ZN NECB System 3 PSZ Occ Sch Sunday, !- Sunday Schedule:Day Name\n   *************   1845   Sp-Corner_Class_1_Pod_1_ZN_1_FLR_1 Sys-3 Flr-1 Sch-D HPlcmt-south ZN NECB System 3 PSZ Occ Sch Monday, !- Monday Schedule:Day Name\n   *************   1846   Sp-Corner_Class_1_Pod_1_ZN_1_FLR_1 Sys-3 Flr-1 Sch-D HPlcmt-south ZN NECB System 3 PSZ Occ Sch Tuesday, !- Tuesday Schedule:Day Name\n   ** Warning ** IP: IDF line~1846 Alpha Argument length exceeds maximum, will be truncated=  Sp-Corner_Class_1_Pod_1_ZN_1_FLR_1 Sys-3 Flr-1 Sch-D HPlcmt-south ZN NECB System 3 PSZ Occ Sch Tuesda\n   **   ~~~   ** Will be processed as Alpha=SP-CORNER_CLASS_1_POD_1_ZN_1_FLR_1 SYS-3 FLR-1 SCH-D HPLCMT-SOUTH ZN NECB SYSTEM 3 PSZ OCC SCH TUESDAY\n   ************* IDF Context for following error/warning message:\n   ************* Note -- lines truncated at 300 characters, if necessary...\n   *************   1842 Schedule:Week:Daily,\n   ************* indicated Name=Schedule:Week:Daily {7af7f625-d711-43b4-8993-a5688581b8c7}\n   ************* Only last 5 lines before error line shown.....\n   *************   1843   Schedule:Week:Daily {7af7f625-d711-43b4-8993-a5688581b8c7}, !- Name\n   *************   1844   Sp-Corner_Class_1_Pod_1_ZN_1_FLR_1 Sys-3 Flr-1 Sch-D HPlcmt-south ZN NECB System 3 PSZ Occ Sch Sunday, !- Sunday Schedule:Day Name\n   *************   1845   Sp-Corner_Class_1_Pod_1_ZN_1_FLR_1 Sys-3 Flr-1 Sch-D HPlcmt-south ZN NECB System 3 PSZ Occ Sch Monday, !- Monday Schedule:Day Name\n   *************   1846   Sp-Corner_Class_1_Pod_1_ZN_1_FLR_1 Sys-3 Flr-1 Sch-D HPlcmt-south ZN NECB System 3 PSZ Occ Sch Tuesday, !- Tuesday Schedule:Day Name\n   *************   1847   Sp-Corner_Class_1_Pod_1_ZN_1_FLR_1 Sys-3 Flr-1 Sch-D HPlcmt-south ZN NECB System 3 PSZ Occ Sch Wednesday, !- Wednesday Schedule:Day Name\n   ** Warning ** IP: IDF line~1847 Alpha Argument length exceeds maximum, will be truncated=  Sp-Corner_Class_1_Pod_1_ZN_1_FLR_1 Sys-3 Flr-1 Sch-D HPlcmt-south ZN NECB System 3 PSZ Occ Sch Wednesda\n   **   ~~~   ** Will be processed as Alpha=SP-CORNER_CLASS_1_POD_1_ZN_1_FLR_1 SYS-3 FLR-1 SCH-D HPLCMT-SOUTH ZN NECB SYSTEM 3 PSZ OCC SCH WEDNESDAY\n   ************* IDF Context for following error/warning message:\n   ************* Note -- lines truncated at 300 characters, if necessary...\n   *************   1842 Schedule:Week:Daily,\n   ************* indicated Name=Schedule:Week:Daily {7af7f625-d711-43b4-8993-a5688581b8c7}\n   ************* Only last 6 lines before error line shown.....\n   *************   1843   Schedule:Week:Daily {7af7f625-d711-43b4-8993-a5688581b8c7}, !- Name\n   *************   1844   Sp-Corner_Class_1_Pod_1_ZN_1_FLR_1 Sys-3 Flr-1 Sch-D HPlcmt-south ZN NECB System 3 PSZ Occ Sch Sunday, !- Sunday Schedule:Day Name\n   *************   1845   Sp-Corner_Class_1_Pod_1_ZN_1_FLR_1 Sys-3 Flr-1 Sch-D HPlcmt-south ZN NECB System 3 PSZ Occ Sch Monday, !- Monday Schedule:Day Name\n   *************   1846   Sp-Corner_Class_1_Pod_1_ZN_1_FLR_1 Sys-3 Flr-1 Sch-D HPlcmt-south ZN NECB System 3 PSZ Occ Sch Tuesday, !- Tuesday Schedule:Day Name\n   *************   1847   Sp-Corner_Class_1_Pod_1_ZN_1_FLR_1 Sys-3 Flr-1 Sch-D HPlcmt-south ZN NECB System 3 PSZ Occ Sch Wednesday, !- Wednesday Schedule:Day Name\n   *************   1848   Sp-Corner_Class_1_Pod_1_ZN_1_FLR_1 Sys-3 Flr-1 Sch-D HPlcmt-south ZN NECB System 3 PSZ Occ Sch Thursday, !- Thursday Schedule:Day Name\n   ** Warning ** IP: IDF line~1848 Alpha Argument length exceeds maximum, will be truncated=  Sp-Corner_Class_1_Pod_1_ZN_1_FLR_1 Sys-3 Flr-1 Sch-D HPlcmt-south ZN NECB System 3 PSZ Occ Sch Thursda\n   **   ~~~   ** Will be processed as Alpha=SP-CORNER_CLASS_1_POD_1_ZN_1_FLR_1 SYS-3 FLR-1 SCH-D HPLCMT-SOUTH ZN NECB SYSTEM 3 PSZ OCC SCH THURSDAY\n   ************* IDF Context for following error/warning message:\n   ************* Note -- lines truncated at 300 characters, if necessary...\n   *************   1842 Schedule:Week:Daily,\n   ************* indicated Name=Schedule:Week:Daily {7af7f625-d711-43b4-8993-a5688581b8c7}\n   ************* Only last 7 lines before error line shown.....\n   *************   1843   Schedule:Week:Daily {7af7f625-d711-43b4-8993-a5688581b8c7}, !- Name\n   *************   1844   Sp-Corner_Class_1_Pod_1_ZN_1_FLR_1 Sys-3 Flr-1 Sch-D HPlcmt-south ZN NECB System 3 PSZ Occ Sch Sunday, !- Sunday Schedule:Day Name\n   *************   1845   Sp-Corner_Class_1_Pod_1_ZN_1_FLR_1 Sys-3 Flr-1 Sch-D HPlcmt-south ZN NECB System 3 PSZ Occ Sch Monday, !- Monday Schedule:Day Name\n   *************   1846   Sp-Corner_Class_1_Pod_1_ZN_1_FLR_1 Sys-3 Flr-1 Sch-D HPlcmt-south ZN NECB System 3 PSZ Occ Sch Tuesday, !- Tuesday Schedule:Day Name\n   *************   1847   Sp-Corner_Class_1_Pod_1_ZN_1_FLR_1 Sys-3 Flr-1 Sch-D HPlcmt-south ZN NECB System 3 PSZ Occ Sch Wednesday, !- Wednesday Schedule:Day Name\n   *************   1848   Sp-Corner_Class_1_Pod_1_ZN_1_FLR_1 Sys-3 Flr-1 Sch-D HPlcmt-south ZN NECB System 3 PSZ Occ Sch Thursday, !- Thursday Schedule:Day Name\n   *************   1849   Sp-Corner_Class_1_Pod_1_ZN_1_FLR_1 Sys-3 Flr-1 Sch-D HPlcmt-south ZN NECB System 3 PSZ Occ Sch Friday, !- Friday Schedule:Day Name\n   ** Warning ** IP: IDF line~1849 Alpha Argument length exceeds maximum, will be truncated=  Sp-Corner_Class_1_Pod_1_ZN_1_FLR_1 Sys-3 Flr-1 Sch-D HPlcmt-south ZN NECB System 3 PSZ Occ Sch Frida\n   **   ~~~   ** Will be processed as Alpha=SP-CORNER_CLASS_1_POD_1_ZN_1_FLR_1 SYS-3 FLR-1 SCH-D HPLCMT-SOUTH ZN NECB SYSTEM 3 PSZ OCC SCH FRIDAY\n   ************* IDF Context for following error/warning message:\n   ************* Note -- lines truncated at 300 characters, if necessary...\n   *************   1842 Schedule:Week:Daily,\n   ************* indicated Name=Schedule:Week:Daily {7af7f625-d711-43b4-8993-a5688581b8c7}\n   ************* Only last 8 lines before error line shown.....\n   *************   1843   Schedule:Week:Daily {7af7f625-d711-43b4-8993-a5688581b8c7}, !- Name\n   *************   1844   Sp-Corner_Class_1_Pod_1_ZN_1_FLR_1 Sys-3 Flr-1 Sch-D HPlcmt-south ZN NECB System 3 PSZ Occ Sch Sunday, !- Sunday Schedule:Day Name\n   *************   1845   Sp-Corner_Class_1_Pod_1_ZN_1_FLR_1 Sys-3 Flr-1 Sch-D HPlcmt-south ZN NECB System 3 PSZ Occ Sch Monday, !- Monday Schedule:Day Name\n   *************   1846   Sp-Corner_Class_1_Pod_1_ZN_1_FLR_1 Sys-3 Flr-1 Sch-D HPlcmt-south ZN NECB System 3 PSZ Occ Sch Tuesday, !- Tuesday Schedule:Day Name\n   *************   1847   Sp-Corner_Class_1_Pod_1_ZN_1_FLR_1 Sys-3 Flr-1 Sch-D HPlcmt-south ZN NECB System 3 PSZ Occ Sch Wednesday, !- Wednesday Schedule:Day Name\n   *************   1848   Sp-Corner_Class_1_Pod_1_ZN_1_FLR_1 Sys-3 Flr-1 Sch-D HPlcmt-south ZN NECB System 3 PSZ Occ Sch Thursday, !- Thursday Schedule:Day Name\n   *************   1849   Sp-Corner_Class_1_Pod_1_ZN_1_FLR_1 Sys-3 Flr-1 Sch-D HPlcmt-south ZN NECB System 3 PSZ Occ Sch Friday, !- Friday Schedule:Day Name\n   *************   1850   Sp-Corner_Class_1_Pod_1_ZN_1_FLR_1 Sys-3 Flr-1 Sch-D HPlcmt-south ZN NECB System 3 PSZ Occ Sch Saturday, !- Saturday Schedule:Day Name\n   ** Warning ** IP: IDF line~1850 Alpha Argument length exceeds maximum, will be truncated=  Sp-Corner_Class_1_Pod_1_ZN_1_FLR_1 Sys-3 Flr-1 Sch-D HPlcmt-south ZN NECB System 3 PSZ Occ Sch Saturda\n   **   ~~~   ** Will be processed as Alpha=SP-CORNER_CLASS_1_POD_1_ZN_1_FLR_1 SYS-3 FLR-1 SCH-D HPLCMT-SOUTH ZN NECB SYSTEM 3 PSZ OCC SCH SATURDAY\n   ************* IDF Context for following error/warning message:\n   ************* Note -- lines truncated at 300 characters, if necessary...\n   *************   1842 Schedule:Week:Daily,\n   ************* indicated Name=Schedule:Week:Daily {7af7f625-d711-43b4-8993-a5688581b8c7}\n   ************* Only last 9 lines before error line shown.....\n   *************   1843   Schedule:Week:Daily {7af7f625-d711-43b4-8993-a5688581b8c7}, !- Name\n   *************   1844   Sp-Corner_Class_1_Pod_1_ZN_1_FLR_1 Sys-3 Flr-1 Sch-D HPlcmt-south ZN NECB System 3 PSZ Occ Sch Sunday, !- Sunday Schedule:Day Name\n   *************   1845   Sp-Corner_Class_1_Pod_1_ZN_1_FLR_1 Sys-3 Flr-1 Sch-D HPlcmt-south ZN NECB System 3 PSZ Occ Sch Monday, !- Monday Schedule:Day Name\n   *************   1846   Sp-Corner_Class_1_Pod_1_ZN_1_FLR_1 Sys-3 Flr-1 Sch-D HPlcmt-south ZN NECB System 3 PSZ Occ Sch Tuesday, !- Tuesday Schedule:Day Name\n   *************   1847   Sp-Corner_Class_1_Pod_1_ZN_1_FLR_1 Sys-3 Flr-1 Sch-D HPlcmt-south ZN NECB System 3 PSZ Occ Sch Wednesday, !- Wednesday Schedule:Day Name\n   *************   1848   Sp-Corner_Class_1_Pod_1_ZN_1_FLR_1 Sys-3 Flr-1 Sch-D HPlcmt-south ZN NECB System 3 PSZ Occ Sch Thursday, !- Thursday Schedule:Day Name\n   *************   1849   Sp-Corner_Class_1_Pod_1_ZN_1_FLR_1 Sys-3 Flr-1 Sch-D HPlcmt-south ZN NECB System 3 PSZ Occ Sch Friday, !- Friday Schedule:Day Name\n   *************   1850   Sp-Corner_Class_1_Pod_1_ZN_1_FLR_1 Sys-3 Flr-1 Sch-D HPlcmt-south ZN NECB System 3 PSZ Occ Sch Saturday, !- Saturday Schedule:Day Name\n   *************   1851   Sp-Corner_Class_1_Pod_1_ZN_1_FLR_1 Sys-3 Flr-1 Sch-D HPlcmt-south ZN NECB System 3 PSZ Occ Sch Default, !- Holiday Schedule:Day Name\n   ** Warning ** IP: IDF line~1851 Alpha Argument length exceeds maximum, will be truncated=  Sp-Corner_Class_1_Pod_1_ZN_1_FLR_1 Sys-3 Flr-1 Sch-D HPlcmt-south ZN NECB System 3 PSZ Occ Sch Defaul\n   **   ~~~   ** Will be processed as Alpha=SP-CORNER_CLASS_1_POD_1_ZN_1_FLR_1 SYS-3 FLR-1 SCH-D HPLCMT-SOUTH ZN NECB SYSTEM 3 PSZ OCC SCH DEFAULT\n   ************* IDF Context for following error/warning message:\n   ************* Note -- lines truncated at 300 characters, if necessary...\n   *************   1842 Schedule:Week:Daily,\n   ************* indicated Name=Schedule:Week:Daily {7af7f625-d711-43b4-8993-a5688581b8c7}\n   ************* Only last 10 lines before error line shown.....\n   *************   1843   Schedule:Week:Daily {7af7f625-d711-43b4-8993-a5688581b8c7}, !- Name\n   *************   1844   Sp-Corner_Class_1_Pod_1_ZN_1_FLR_1 Sys-3 Flr-1 Sch-D HPlcmt-south ZN NECB System 3 PSZ Occ Sch Sunday, !- Sunday Schedule:Day Name\n   *************   1845   Sp-Corner_Class_1_Pod_1_ZN_1_FLR_1 Sys-3 Flr-1 Sch-D HPlcmt-south ZN NECB System 3 PSZ Occ Sch Monday, !- Monday Schedule:Day Name\n   *************   1846   Sp-Corner_Class_1_Pod_1_ZN_1_FLR_1 Sys-3 Flr-1 Sch-D HPlcmt-south ZN NECB System 3 PSZ Occ Sch Tuesday, !- Tuesday Schedule:Day Name\n   *************   1847   Sp-Corner_Class_1_Pod_1_ZN_1_FLR_1 Sys-3 Flr-1 Sch-D HPlcmt-south ZN NECB System 3 PSZ Occ Sch Wednesday, !- Wednesday Schedule:Day Name\n   *************   1848   Sp-Corner_Class_1_Pod_1_ZN_1_FLR_1 Sys-3 Flr-1 Sch-D HPlcmt-south ZN NECB System 3 PSZ Occ Sch Thursday, !- Thursday Schedule:Day Name\n   *************   1849   Sp-Corner_Class_1_Pod_1_ZN_1_FLR_1 Sys-3 Flr-1 Sch-D HPlcmt-south ZN NECB System 3 PSZ Occ Sch Friday, !- Friday Schedule:Day Name\n   *************   1850   Sp-Corner_Class_1_Pod_1_ZN_1_FLR_1 Sys-3 Flr-1 Sch-D HPlcmt-south ZN NECB System 3 PSZ Occ Sch Saturday, !- Saturday Schedule:Day Name\n   *************   1851   Sp-Corner_Class_1_Pod_1_ZN_1_FLR_1 Sys-3 Flr-1 Sch-D HPlcmt-south ZN NECB System 3 PSZ Occ Sch Default, !- Holiday Schedule:Day Name\n   *************   1852   Sp-Corner_Class_1_Pod_1_ZN_1_FLR_1 Sys-3 Flr-1 Sch-D HPlcmt-south ZN NECB System 3 PSZ Occ Sch Summer Design Day, !- SummerDesignDay Schedule:Day Name\n   ** Warning ** IP: IDF line~1852 Alpha Argument length exceeds maximum, will be truncated=  Sp-Corner_Class_1_Pod_1_ZN_1_FLR_1 Sys-3 Flr-1 Sch-D HPlcmt-south ZN NECB System 3 PSZ Occ Sch Summer Design Da\n   **   ~~~   ** Will be processed as Alpha=SP-CORNER_CLASS_1_POD_1_ZN_1_FLR_1 SYS-3 FLR-1 SCH-D HPLCMT-SOUTH ZN NECB SYSTEM 3 PSZ OCC SCH SUMMER DESIGN DAY\n   ************* IDF Context for following error/warning message:\n   ************* Note -- lines truncated at 300 characters, if necessary...\n   *************   1842 Schedule:Week:Daily,\n   ************* indicated Name=Schedule:Week:Daily {7af7f625-d711-43b4-8993-a5688581b8c7}\n   ************* Only last 10 lines before error line shown.....\n   *************   1844   Sp-Corner_Class_1_Pod_1_ZN_1_FLR_1 Sys-3 Flr-1 Sch-D HPlcmt-south ZN NECB System 3 PSZ Occ Sch Sunday, !- Sunday Schedule:Day Name\n   *************   1845   Sp-Corner_Class_1_Pod_1_ZN_1_FLR_1 Sys-3 Flr-1 Sch-D HPlcmt-south ZN NECB System 3 PSZ Occ Sch Monday, !- Monday Schedule:Day Name\n   *************   1846   Sp-Corner_Class_1_Pod_1_ZN_1_FLR_1 Sys-3 Flr-1 Sch-D HPlcmt-south ZN NECB System 3 PSZ Occ Sch Tuesday, !- Tuesday Schedule:Day Name\n   *************   1847   Sp-Corner_Class_1_Pod_1_ZN_1_FLR_1 Sys-3 Flr-1 Sch-D HPlcmt-south ZN NECB System 3 PSZ Occ Sch Wednesday, !- Wednesday Schedule:Day Name\n   *************   1848   Sp-Corner_Class_1_Pod_1_ZN_1_FLR_1 Sys-3 Flr-1 Sch-D HPlcmt-south ZN NECB System 3 PSZ Occ Sch Thursday, !- Thursday Schedule:Day Name\n   *************   1849   Sp-Corner_Class_1_Pod_1_ZN_1_FLR_1 Sys-3 Flr-1 Sch-D HPlcmt-south ZN NECB System 3 PSZ Occ Sch Friday, !- Friday Schedule:Day Name\n   *************   1850   Sp-Corner_Class_1_Pod_1_ZN_1_FLR_1 Sys-3 Flr-1 Sch-D HPlcmt-south ZN NECB System 3 PSZ Occ Sch Saturday, !- Saturday Schedule:Day Name\n   *************   1851   Sp-Corner_Class_1_Pod_1_ZN_1_FLR_1 Sys-3 Flr-1 Sch-D HPlcmt-south ZN NECB System 3 PSZ Occ Sch Default, !- Holiday Schedule:Day Name\n   *************   1852   Sp-Corner_Class_1_Pod_1_ZN_1_FLR_1 Sys-3 Flr-1 Sch-D HPlcmt-south ZN NECB System 3 PSZ Occ Sch Summer Design Day, !- SummerDesignDay Schedule:Day Name\n   *************   1853   Sp-Corner_Class_1_Pod_1_ZN_1_FLR_1 Sys-3 Flr-1 Sch-D HPlcmt-south ZN NECB System 3 PSZ Occ Sch Winter Design Day, !- WinterDesignDay Schedule:Day Name\n   ** Warning ** IP: IDF line~1853 Alpha Argument length exceeds maximum, will be truncated=  Sp-Corner_Class_1_Pod_1_ZN_1_FLR_1 Sys-3 Flr-1 Sch-D HPlcmt-south ZN NECB System 3 PSZ Occ Sch Winter Design Da\n   **   ~~~   ** Will be processed as Alpha=SP-CORNER_CLASS_1_POD_1_ZN_1_FLR_1 SYS-3 FLR-1 SCH-D HPLCMT-SOUTH ZN NECB SYSTEM 3 PSZ OCC SCH WINTER DESIGN DAY\n   ************* IDF Context for following error/warning message:\n   ************* Note -- lines truncated at 300 characters, if necessary...\n   *************   1842 Schedule:Week:Daily,\n   ************* indicated Name=Schedule:Week:Daily {7af7f625-d711-43b4-8993-a5688581b8c7}\n   ************* Only last 10 lines before error line shown.....\n   *************   1845   Sp-Corner_Class_1_Pod_1_ZN_1_FLR_1 Sys-3 Flr-1 Sch-D HPlcmt-south ZN NECB System 3 PSZ Occ Sch Monday, !- Monday Schedule:Day Name\n   *************   1846   Sp-Corner_Class_1_Pod_1_ZN_1_FLR_1 Sys-3 Flr-1 Sch-D HPlcmt-south ZN NECB System 3 PSZ Occ Sch Tuesday, !- Tuesday Schedule:Day Name\n   *************   1847   Sp-Corner_Class_1_Pod_1_ZN_1_FLR_1 Sys-3 Flr-1 Sch-D HPlcmt-south ZN NECB System 3 PSZ Occ Sch Wednesday, !- Wednesday Schedule:Day Name\n   *************   1848   Sp-Corner_Class_1_Pod_1_ZN_1_FLR_1 Sys-3 Flr-1 Sch-D HPlcmt-south ZN NECB System 3 PSZ Occ Sch Thursday, !- Thursday Schedule:Day Name\n   *************   1849   Sp-Corner_Class_1_Pod_1_ZN_1_FLR_1 Sys-3 Flr-1 Sch-D HPlcmt-south ZN NECB System 3 PSZ Occ Sch Friday, !- Friday Schedule:Day Name\n   *************   1850   Sp-Corner_Class_1_Pod_1_ZN_1_FLR_1 Sys-3 Flr-1 Sch-D HPlcmt-south ZN NECB System 3 PSZ Occ Sch Saturday, !- Saturday Schedule:Day Name\n   *************   1851   Sp-Corner_Class_1_Pod_1_ZN_1_FLR_1 Sys-3 Flr-1 Sch-D HPlcmt-south ZN NECB System 3 PSZ Occ Sch Default, !- Holiday Schedule:Day Name\n   *************   1852   Sp-Corner_Class_1_Pod_1_ZN_1_FLR_1 Sys-3 Flr-1 Sch-D HPlcmt-south ZN NECB System 3 PSZ Occ Sch Summer Design Day, !- SummerDesignDay Schedule:Day Name\n   *************   1853   Sp-Corner_Class_1_Pod_1_ZN_1_FLR_1 Sys-3 Flr-1 Sch-D HPlcmt-south ZN NECB System 3 PSZ Occ Sch Winter Design Day, !- WinterDesignDay Schedule:Day Name\n   *************   1854   Sp-Corner_Class_1_Pod_1_ZN_1_FLR_1 Sys-3 Flr-1 Sch-D HPlcmt-south ZN NECB System 3 PSZ Occ Sch Default, !- CustomDay1 Schedule:Day Name\n   ** Warning ** IP: IDF line~1854 Alpha Argument length exceeds maximum, will be truncated=  Sp-Corner_Class_1_Pod_1_ZN_1_FLR_1 Sys-3 Flr-1 Sch-D HPlcmt-south ZN NECB System 3 PSZ Occ Sch Defaul\n   **   ~~~   ** Will be processed as Alpha=SP-CORNER_CLASS_1_POD_1_ZN_1_FLR_1 SYS-3 FLR-1 SCH-D HPLCMT-SOUTH ZN NECB SYSTEM 3 PSZ OCC SCH DEFAULT\n   ************* IDF Context for following error/warning message:\n   ************* Note -- lines truncated at 300 characters, if necessary...\n   *************   1842 Schedule:Week:Daily,\n   ************* indicated Name=Schedule:Week:Daily {7af7f625-d711-43b4-8993-a5688581b8c7}\n   ************* Only last 10 lines before error line shown.....\n   *************   1846   Sp-Corner_Class_1_Pod_1_ZN_1_FLR_1 Sys-3 Flr-1 Sch-D HPlcmt-south ZN NECB System 3 PSZ Occ Sch Tuesday, !- Tuesday Schedule:Day Name\n   *************   1847   Sp-Corner_Class_1_Pod_1_ZN_1_FLR_1 Sys-3 Flr-1 Sch-D HPlcmt-south ZN NECB System 3 PSZ Occ Sch Wednesday, !- Wednesday Schedule:Day Name\n   *************   1848   Sp-Corner_Class_1_Pod_1_ZN_1_FLR_1 Sys-3 Flr-1 Sch-D HPlcmt-south ZN NECB System 3 PSZ Occ Sch Thursday, !- Thursday Schedule:Day Name\n   *************   1849   Sp-Corner_Class_1_Pod_1_ZN_1_FLR_1 Sys-3 Flr-1 Sch-D HPlcmt-south ZN NECB System 3 PSZ Occ Sch Friday, !- Friday Schedule:Day Name\n   *************   1850   Sp-Corner_Class_1_Pod_1_ZN_1_FLR_1 Sys-3 Flr-1 Sch-D HPlcmt-south ZN NECB System 3 PSZ Occ Sch Saturday, !- Saturday Schedule:Day Name\n   *************   1851   Sp-Corner_Class_1_Pod_1_ZN_1_FLR_1 Sys-3 Flr-1 Sch-D HPlcmt-south ZN NECB System 3 PSZ Occ Sch Default, !- Holiday Schedule:Day Name\n   *************   1852   Sp-Corner_Class_1_Pod_1_ZN_1_FLR_1 Sys-3 Flr-1 Sch-D HPlcmt-south ZN NECB System 3 PSZ Occ Sch Summer Design Day, !- SummerDesignDay Schedule:Day Name\n   *************   1853   Sp-Corner_Class_1_Pod_1_ZN_1_FLR_1 Sys-3 Flr-1 Sch-D HPlcmt-south ZN NECB System 3 PSZ Occ Sch Winter Design Day, !- WinterDesignDay Schedule:Day Name\n   *************   1854   Sp-Corner_Class_1_Pod_1_ZN_1_FLR_1 Sys-3 Flr-1 Sch-D HPlcmt-south ZN NECB System 3 PSZ Occ Sch Default, !- CustomDay1 Schedule:Day Name\n   *************   1855   Sp-Corner_Class_1_Pod_1_ZN_1_FLR_1 Sys-3 Flr-1 Sch-D HPlcmt-south ZN NECB System 3 PSZ Occ Sch Default; !- CustomDay2 Schedule:Day Name\n   ** Warning ** IP: IDF line~1855 Alpha Argument length exceeds maximum, will be truncated=  Sp-Corner_Class_1_Pod_1_ZN_1_FLR_1 Sys-3 Flr-1 Sch-D HPlcmt-south ZN NECB System 3 PSZ Occ Sch Defaul\n   **   ~~~   ** Will be processed as Alpha=SP-CORNER_CLASS_1_POD_1_ZN_1_FLR_1 SYS-3 FLR-1 SCH-D HPLCMT-SOUTH ZN NECB SYSTEM 3 PSZ OCC SCH DEFAULT\n   ************* IDF Context for following error/warning message:\n   ************* Note -- lines truncated at 300 characters, if necessary...\n   *************   1866 Schedule:Day:Interval,\n   ************* indicated Name=Sp-Corner_Class_1_Pod_1_ZN_1_FLR_1 Sys-3 Flr-1 Sch-D HPlcmt-south ZN NECB System 3 PSZ Occ Sch Default\n   ************* Only last 1 lines before error line shown.....\n   *************   1867   Sp-Corner_Class_1_Pod_1_ZN_1_FLR_1 Sys-3 Flr-1 Sch-D HPlcmt-south ZN NECB System 3 PSZ Occ Sch Default, !- Name\n   ** Warning ** IP: IDF line~1867 Alpha Argument length exceeds maximum, will be truncated=  Sp-Corner_Class_1_Pod_1_ZN_1_FLR_1 Sys-3 Flr-1 Sch-D HPlcmt-south ZN NECB System 3 PSZ Occ Sch Defaul\n   **   ~~~   ** Will be processed as Alpha=SP-CORNER_CLASS_1_POD_1_ZN_1_FLR_1 SYS-3 FLR-1 SCH-D HPLCMT-SOUTH ZN NECB SYSTEM 3 PSZ OCC SCH DEFAULT\n   ************* IDF Context for following error/warning message:\n   ************* Note -- lines truncated at 300 characters, if necessary...\n   *************   1873 Schedule:Day:Interval,\n   ************* indicated Name=Sp-Corner_Class_1_Pod_1_ZN_1_FLR_1 Sys-3 Flr-1 Sch-D HPlcmt-south ZN NECB System 3 PSZ Occ Sch Summer Design Day\n   ************* Only last 1 lines before error line shown.....\n   *************   1874   Sp-Corner_Class_1_Pod_1_ZN_1_FLR_1 Sys-3 Flr-1 Sch-D HPlcmt-south ZN NECB System 3 PSZ Occ Sch Summer Design Day, !- Name\n   ** Warning ** IP: IDF line~1874 Alpha Argument length exceeds maximum, will be truncated=  Sp-Corner_Class_1_Pod_1_ZN_1_FLR_1 Sys-3 Flr-1 Sch-D HPlcmt-south ZN NECB System 3 PSZ Occ Sch Summer Design Da\n   **   ~~~   ** Will be processed as Alpha=SP-CORNER_CLASS_1_POD_1_ZN_1_FLR_1 SYS-3 FLR-1 SCH-D HPLCMT-SOUTH ZN NECB SYSTEM 3 PSZ OCC SCH SUMMER DESIGN DAY\n   ************* IDF Context for following error/warning message:\n   ************* Note -- lines truncated at 300 characters, if necessary...\n   *************   1880 Schedule:Day:Interval,\n   ************* indicated Name=Sp-Corner_Class_1_Pod_1_ZN_1_FLR_1 Sys-3 Flr-1 Sch-D HPlcmt-south ZN NECB System 3 PSZ Occ Sch Winter Design Day\n   ************* Only last 1 lines before error line shown.....\n   *************   1881   Sp-Corner_Class_1_Pod_1_ZN_1_FLR_1 Sys-3 Flr-1 Sch-D HPlcmt-south ZN NECB System 3 PSZ Occ Sch Winter Design Day, !- Name\n   ** Warning ** IP: IDF line~1881 Alpha Argument length exceeds maximum, will be truncated=  Sp-Corner_Class_1_Pod_1_ZN_1_FLR_1 Sys-3 Flr-1 Sch-D HPlcmt-south ZN NECB System 3 PSZ Occ Sch Winter Design Da\n   **   ~~~   ** Will be processed as Alpha=SP-CORNER_CLASS_1_POD_1_ZN_1_FLR_1 SYS-3 FLR-1 SCH-D HPLCMT-SOUTH ZN NECB SYSTEM 3 PSZ OCC SCH WINTER DESIGN DAY\n   ************* IDF Context for following error/warning message:\n   ************* Note -- lines truncated at 300 characters, if necessary...\n   *************   2149 Schedule:Day:Interval,\n   ************* indicated Name=Sp-Corner_Class_1_Pod_2_ZN_1_FLR_1 Sys-3 Flr-1 Sch-D HPlcmt-south ZN NECB System 3 PSZ Occ Sch Sunday\n   ************* Only last 1 lines before error line shown.....\n   *************   2150   Sp-Corner_Class_1_Pod_2_ZN_1_FLR_1 Sys-3 Flr-1 Sch-D HPlcmt-south ZN NECB System 3 PSZ Occ Sch Sunday, !- Name\n   ** Warning ** IP: IDF line~2150 Alpha Argument length exceeds maximum, will be truncated=  Sp-Corner_Class_1_Pod_2_ZN_1_FLR_1 Sys-3 Flr-1 Sch-D HPlcmt-south ZN NECB System 3 PSZ Occ Sch Sunda\n   **   ~~~   ** Will be processed as Alpha=SP-CORNER_CLASS_1_POD_2_ZN_1_FLR_1 SYS-3 FLR-1 SCH-D HPLCMT-SOUTH ZN NECB SYSTEM 3 PSZ OCC SCH SUNDAY\n   ************* IDF Context for following error/warning message:\n   ************* Note -- lines truncated at 300 characters, if necessary...\n   *************   2156 Schedule:Day:Interval,\n   ************* indicated Name=Sp-Corner_Class_1_Pod_2_ZN_1_FLR_1 Sys-3 Flr-1 Sch-D HPlcmt-south ZN NECB System 3 PSZ Occ Sch Monday\n   ************* Only last 1 lines before error line shown.....\n   *************   2157   Sp-Corner_Class_1_Pod_2_ZN_1_FLR_1 Sys-3 Flr-1 Sch-D HPlcmt-south ZN NECB System 3 PSZ Occ Sch Monday, !- Name\n   ** Warning ** IP: IDF line~2157 Alpha Argument length exceeds maximum, will be truncated=  Sp-Corner_Class_1_Pod_2_ZN_1_FLR_1 Sys-3 Flr-1 Sch-D HPlcmt-south ZN NECB System 3 PSZ Occ Sch Monda\n   **   ~~~   ** Will be processed as Alpha=SP-CORNER_CLASS_1_POD_2_ZN_1_FLR_1 SYS-3 FLR-1 SCH-D HPLCMT-SOUTH ZN NECB SYSTEM 3 PSZ OCC SCH MONDAY\n   ************* IDF Context for following error/warning message:\n   ************* Note -- lines truncated at 300 characters, if necessary...\n   *************   2171 Schedule:Day:Interval,\n   ************* indicated Name=Sp-Corner_Class_1_Pod_2_ZN_1_FLR_1 Sys-3 Flr-1 Sch-D HPlcmt-south ZN NECB System 3 PSZ Occ Sch Tuesday\n   ************* Only last 1 lines before error line shown.....\n   *************   2172   Sp-Corner_Class_1_Pod_2_ZN_1_FLR_1 Sys-3 Flr-1 Sch-D HPlcmt-south ZN NECB System 3 PSZ Occ Sch Tuesday, !- Name\n   ** Warning ** IP: IDF line~2172 Alpha Argument length exceeds maximum, will be truncated=  Sp-Corner_Class_1_Pod_2_ZN_1_FLR_1 Sys-3 Flr-1 Sch-D HPlcmt-south ZN NECB System 3 PSZ Occ Sch Tuesda\n   **   ~~~   ** Will be processed as Alpha=SP-CORNER_CLASS_1_POD_2_ZN_1_FLR_1 SYS-3 FLR-1 SCH-D HPLCMT-SOUTH ZN NECB SYSTEM 3 PSZ OCC SCH TUESDAY\n   ************* IDF Context for following error/warning message:\n   ************* Note -- lines truncated at 300 characters, if necessary...\n   *************   2186 Schedule:Day:Interval,\n   ************* indicated Name=Sp-Corner_Class_1_Pod_2_ZN_1_FLR_1 Sys-3 Flr-1 Sch-D HPlcmt-south ZN NECB System 3 PSZ Occ Sch Wednesday\n   ************* Only last 1 lines before error line shown.....\n   *************   2187   Sp-Corner_Class_1_Pod_2_ZN_1_FLR_1 Sys-3 Flr-1 Sch-D HPlcmt-south ZN NECB System 3 PSZ Occ Sch Wednesday, !- Name\n   ** Warning ** IP: IDF line~2187 Alpha Argument length exceeds maximum, will be truncated=  Sp-Corner_Class_1_Pod_2_ZN_1_FLR_1 Sys-3 Flr-1 Sch-D HPlcmt-south ZN NECB System 3 PSZ Occ Sch Wednesda\n   **   ~~~   ** Will be processed as Alpha=SP-CORNER_CLASS_1_POD_2_ZN_1_FLR_1 SYS-3 FLR-1 SCH-D HPLCMT-SOUTH ZN NECB SYSTEM 3 PSZ OCC SCH WEDNESDAY\n   ************* IDF Context for following error/warning message:\n   ************* Note -- lines truncated at 300 characters, if necessary...\n   *************   2201 Schedule:Day:Interval,\n   ************* indicated Name=Sp-Corner_Class_1_Pod_2_ZN_1_FLR_1 Sys-3 Flr-1 Sch-D HPlcmt-south ZN NECB System 3 PSZ Occ Sch Thursday\n   ************* Only last 1 lines before error line shown.....\n   *************   2202   Sp-Corner_Class_1_Pod_2_ZN_1_FLR_1 Sys-3 Flr-1 Sch-D HPlcmt-south ZN NECB System 3 PSZ Occ Sch Thursday, !- Name\n   ** Warning ** IP: IDF line~2202 Alpha Argument length exceeds maximum, will be truncated=  Sp-Corner_Class_1_Pod_2_ZN_1_FLR_1 Sys-3 Flr-1 Sch-D HPlcmt-south ZN NECB System 3 PSZ Occ Sch Thursda\n   **   ~~~   ** Will be processed as Alpha=SP-CORNER_CLASS_1_POD_2_ZN_1_FLR_1 SYS-3 FLR-1 SCH-D HPLCMT-SOUTH ZN NECB SYSTEM 3 PSZ OCC SCH THURSDAY\n   ************* IDF Context for following error/warning message:\n   ************* Note -- lines truncated at 300 characters, if necessary...\n   *************   2216 Schedule:Day:Interval,\n   ************* indicated Name=Sp-Corner_Class_1_Pod_2_ZN_1_FLR_1 Sys-3 Flr-1 Sch-D HPlcmt-south ZN NECB System 3 PSZ Occ Sch Friday\n   ************* Only last 1 lines before error line shown.....\n   *************   2217   Sp-Corner_Class_1_Pod_2_ZN_1_FLR_1 Sys-3 Flr-1 Sch-D HPlcmt-south ZN NECB System 3 PSZ Occ Sch Friday, !- Name\n   ** Warning ** IP: IDF line~2217 Alpha Argument length exceeds maximum, will be truncated=  Sp-Corner_Class_1_Pod_2_ZN_1_FLR_1 Sys-3 Flr-1 Sch-D HPlcmt-south ZN NECB System 3 PSZ Occ Sch Frida\n   **   ~~~   ** Will be processed as Alpha=SP-CORNER_CLASS_1_POD_2_ZN_1_FLR_1 SYS-3 FLR-1 SCH-D HPLCMT-SOUTH ZN NECB SYSTEM 3 PSZ OCC SCH FRIDAY\n   ************* IDF Context for following error/warning message:\n   ************* Note -- lines truncated at 300 characters, if necessary...\n   *************   2231 Schedule:Day:Interval,\n   ************* indicated Name=Sp-Corner_Class_1_Pod_2_ZN_1_FLR_1 Sys-3 Flr-1 Sch-D HPlcmt-south ZN NECB System 3 PSZ Occ Sch Saturday\n   ************* Only last 1 lines before error line shown.....\n   *************   2232   Sp-Corner_Class_1_Pod_2_ZN_1_FLR_1 Sys-3 Flr-1 Sch-D HPlcmt-south ZN NECB System 3 PSZ Occ Sch Saturday, !- Name\n   ** Warning ** IP: IDF line~2232 Alpha Argument length exceeds maximum, will be truncated=  Sp-Corner_Class_1_Pod_2_ZN_1_FLR_1 Sys-3 Flr-1 Sch-D HPlcmt-south ZN NECB System 3 PSZ Occ Sch Saturda\n   **   ~~~   ** Will be processed as Alpha=SP-CORNER_CLASS_1_POD_2_ZN_1_FLR_1 SYS-3 FLR-1 SCH-D HPLCMT-SOUTH ZN NECB SYSTEM 3 PSZ OCC SCH SATURDAY\n   ************* IDF Context for following error/warning message:\n   ************* Note -- lines truncated at 300 characters, if necessary...\n   *************   2238 Schedule:Week:Daily,\n   ************* indicated Name=Schedule:Week:Daily {d5ea85ea-e2c6-4f92-b9a4-4b4e4e746bb7}\n   ************* Only last 2 lines before error line shown.....\n   *************   2239   Schedule:Week:Daily {d5ea85ea-e2c6-4f92-b9a4-4b4e4e746bb7}, !- Name\n   *************   2240   Sp-Corner_Class_1_Pod_2_ZN_1_FLR_1 Sys-3 Flr-1 Sch-D HPlcmt-south ZN NECB System 3 PSZ Occ Sch Sunday, !- Sunday Schedule:Day Name\n   ** Warning ** IP: IDF line~2240 Alpha Argument length exceeds maximum, will be truncated=  Sp-Corner_Class_1_Pod_2_ZN_1_FLR_1 Sys-3 Flr-1 Sch-D HPlcmt-south ZN NECB System 3 PSZ Occ Sch Sunda\n   **   ~~~   ** Will be processed as Alpha=SP-CORNER_CLASS_1_POD_2_ZN_1_FLR_1 SYS-3 FLR-1 SCH-D HPLCMT-SOUTH ZN NECB SYSTEM 3 PSZ OCC SCH SUNDAY\n   ************* IDF Context for following error/warning message:\n   ************* Note -- lines truncated at 300 characters, if necessary...\n   *************   2238 Schedule:Week:Daily,\n   ************* indicated Name=Schedule:Week:Daily {d5ea85ea-e2c6-4f92-b9a4-4b4e4e746bb7}\n   ************* Only last 3 lines before error line shown.....\n   *************   2239   Schedule:Week:Daily {d5ea85ea-e2c6-4f92-b9a4-4b4e4e746bb7}, !- Name\n   *************   2240   Sp-Corner_Class_1_Pod_2_ZN_1_FLR_1 Sys-3 Flr-1 Sch-D HPlcmt-south ZN NECB System 3 PSZ Occ Sch Sunday, !- Sunday Schedule:Day Name\n   *************   2241   Sp-Corner_Class_1_Pod_2_ZN_1_FLR_1 Sys-3 Flr-1 Sch-D HPlcmt-south ZN NECB System 3 PSZ Occ Sch Monday, !- Monday Schedule:Day Name\n   ** Warning ** IP: IDF line~2241 Alpha Argument length exceeds maximum, will be truncated=  Sp-Corner_Class_1_Pod_2_ZN_1_FLR_1 Sys-3 Flr-1 Sch-D HPlcmt-south ZN NECB System 3 PSZ Occ Sch Monda\n   **   ~~~   ** Will be processed as Alpha=SP-CORNER_CLASS_1_POD_2_ZN_1_FLR_1 SYS-3 FLR-1 SCH-D HPLCMT-SOUTH ZN NECB SYSTEM 3 PSZ OCC SCH MONDAY\n   ************* IDF Context for following error/warning message:\n   ************* Note -- lines truncated at 300 characters, if necessary...\n   *************   2238 Schedule:Week:Daily,\n   ************* indicated Name=Schedule:Week:Daily {d5ea85ea-e2c6-4f92-b9a4-4b4e4e746bb7}\n   ************* Only last 4 lines before error line shown.....\n   *************   2239   Schedule:Week:Daily {d5ea85ea-e2c6-4f92-b9a4-4b4e4e746bb7}, !- Name\n   *************   2240   Sp-Corner_Class_1_Pod_2_ZN_1_FLR_1 Sys-3 Flr-1 Sch-D HPlcmt-south ZN NECB System 3 PSZ Occ Sch Sunday, !- Sunday Schedule:Day Name\n   *************   2241   Sp-Corner_Class_1_Pod_2_ZN_1_FLR_1 Sys-3 Flr-1 Sch-D HPlcmt-south ZN NECB System 3 PSZ Occ Sch Monday, !- Monday Schedule:Day Name\n   *************   2242   Sp-Corner_Class_1_Pod_2_ZN_1_FLR_1 Sys-3 Flr-1 Sch-D HPlcmt-south ZN NECB System 3 PSZ Occ Sch Tuesday, !- Tuesday Schedule:Day Name\n   ** Warning ** IP: IDF line~2242 Alpha Argument length exceeds maximum, will be truncated=  Sp-Corner_Class_1_Pod_2_ZN_1_FLR_1 Sys-3 Flr-1 Sch-D HPlcmt-south ZN NECB System 3 PSZ Occ Sch Tuesda\n   **   ~~~   ** Will be processed as Alpha=SP-CORNER_CLASS_1_POD_2_ZN_1_FLR_1 SYS-3 FLR-1 SCH-D HPLCMT-SOUTH ZN NECB SYSTEM 3 PSZ OCC SCH TUESDAY\n   ************* IDF Context for following error/warning message:\n   ************* Note -- lines truncated at 300 characters, if necessary...\n   *************   2238 Schedule:Week:Daily,\n   ************* indicated Name=Schedule:Week:Daily {d5ea85ea-e2c6-4f92-b9a4-4b4e4e746bb7}\n   ************* Only last 5 lines before error line shown.....\n   *************   2239   Schedule:Week:Daily {d5ea85ea-e2c6-4f92-b9a4-4b4e4e746bb7}, !- Name\n   *************   2240   Sp-Corner_Class_1_Pod_2_ZN_1_FLR_1 Sys-3 Flr-1 Sch-D HPlcmt-south ZN NECB System 3 PSZ Occ Sch Sunday, !- Sunday Schedule:Day Name\n   *************   2241   Sp-Corner_Class_1_Pod_2_ZN_1_FLR_1 Sys-3 Flr-1 Sch-D HPlcmt-south ZN NECB System 3 PSZ Occ Sch Monday, !- Monday Schedule:Day Name\n   *************   2242   Sp-Corner_Class_1_Pod_2_ZN_1_FLR_1 Sys-3 Flr-1 Sch-D HPlcmt-south ZN NECB System 3 PSZ Occ Sch Tuesday, !- Tuesday Schedule:Day Name\n   *************   2243   Sp-Corner_Class_1_Pod_2_ZN_1_FLR_1 Sys-3 Flr-1 Sch-D HPlcmt-south ZN NECB System 3 PSZ Occ Sch Wednesday, !- Wednesday Schedule:Day Name\n   ** Warning ** IP: IDF line~2243 Alpha Argument length exceeds maximum, will be truncated=  Sp-Corner_Class_1_Pod_2_ZN_1_FLR_1 Sys-3 Flr-1 Sch-D HPlcmt-south ZN NECB System 3 PSZ Occ Sch Wednesda\n   **   ~~~   ** Will be processed as Alpha=SP-CORNER_CLASS_1_POD_2_ZN_1_FLR_1 SYS-3 FLR-1 SCH-D HPLCMT-SOUTH ZN NECB SYSTEM 3 PSZ OCC SCH WEDNESDAY\n   ************* IDF Context for following error/warning message:\n   ************* Note -- lines truncated at 300 characters, if necessary...\n   *************   2238 Schedule:Week:Daily,\n   ************* indicated Name=Schedule:Week:Daily {d5ea85ea-e2c6-4f92-b9a4-4b4e4e746bb7}\n   ************* Only last 6 lines before error line shown.....\n   *************   2239   Schedule:Week:Daily {d5ea85ea-e2c6-4f92-b9a4-4b4e4e746bb7}, !- Name\n   *************   2240   Sp-Corner_Class_1_Pod_2_ZN_1_FLR_1 Sys-3 Flr-1 Sch-D HPlcmt-south ZN NECB System 3 PSZ Occ Sch Sunday, !- Sunday Schedule:Day Name\n   *************   2241   Sp-Corner_Class_1_Pod_2_ZN_1_FLR_1 Sys-3 Flr-1 Sch-D HPlcmt-south ZN NECB System 3 PSZ Occ Sch Monday, !- Monday Schedule:Day Name\n   *************   2242   Sp-Corner_Class_1_Pod_2_ZN_1_FLR_1 Sys-3 Flr-1 Sch-D HPlcmt-south ZN NECB System 3 PSZ Occ Sch Tuesday, !- Tuesday Schedule:Day Name\n   *************   2243   Sp-Corner_Class_1_Pod_2_ZN_1_FLR_1 Sys-3 Flr-1 Sch-D HPlcmt-south ZN NECB System 3 PSZ Occ Sch Wednesday, !- Wednesday Schedule:Day Name\n   *************   2244   Sp-Corner_Class_1_Pod_2_ZN_1_FLR_1 Sys-3 Flr-1 Sch-D HPlcmt-south ZN NECB System 3 PSZ Occ Sch Thursday, !- Thursday Schedule:Day Name\n   ** Warning ** IP: IDF line~2244 Alpha Argument length exceeds maximum, will be truncated=  Sp-Corner_Class_1_Pod_2_ZN_1_FLR_1 Sys-3 Flr-1 Sch-D HPlcmt-south ZN NECB System 3 PSZ Occ Sch Thursda\n   **   ~~~   ** Will be processed as Alpha=SP-CORNER_CLASS_1_POD_2_ZN_1_FLR_1 SYS-3 FLR-1 SCH-D HPLCMT-SOUTH ZN NECB SYSTEM 3 PSZ OCC SCH THURSDAY\n   ************* IDF Context for following error/warning message:\n   ************* Note -- lines truncated at 300 characters, if necessary...\n   *************   2238 Schedule:Week:Daily,\n   ************* indicated Name=Schedule:Week:Daily {d5ea85ea-e2c6-4f92-b9a4-4b4e4e746bb7}\n   ************* Only last 7 lines before error line shown.....\n   *************   2239   Schedule:Week:Daily {d5ea85ea-e2c6-4f92-b9a4-4b4e4e746bb7}, !- Name\n   *************   2240   Sp-Corner_Class_1_Pod_2_ZN_1_FLR_1 Sys-3 Flr-1 Sch-D HPlcmt-south ZN NECB System 3 PSZ Occ Sch Sunday, !- Sunday Schedule:Day Name\n   *************   2241   Sp-Corner_Class_1_Pod_2_ZN_1_FLR_1 Sys-3 Flr-1 Sch-D HPlcmt-south ZN NECB System 3 PSZ Occ Sch Monday, !- Monday Schedule:Day Name\n   *************   2242   Sp-Corner_Class_1_Pod_2_ZN_1_FLR_1 Sys-3 Flr-1 Sch-D HPlcmt-south ZN NECB System 3 PSZ Occ Sch Tuesday, !- Tuesday Schedule:Day Name\n   *************   2243   Sp-Corner_Class_1_Pod_2_ZN_1_FLR_1 Sys-3 Flr-1 Sch-D HPlcmt-south ZN NECB System 3 PSZ Occ Sch Wednesday, !- Wednesday Schedule:Day Name\n   *************   2244   Sp-Corner_Class_1_Pod_2_ZN_1_FLR_1 Sys-3 Flr-1 Sch-D HPlcmt-south ZN NECB System 3 PSZ Occ Sch Thursday, !- Thursday Schedule:Day Name\n   *************   2245   Sp-Corner_Class_1_Pod_2_ZN_1_FLR_1 Sys-3 Flr-1 Sch-D HPlcmt-south ZN NECB System 3 PSZ Occ Sch Friday, !- Friday Schedule:Day Name\n   ** Warning ** IP: IDF line~2245 Alpha Argument length exceeds maximum, will be truncated=  Sp-Corner_Class_1_Pod_2_ZN_1_FLR_1 Sys-3 Flr-1 Sch-D HPlcmt-south ZN NECB System 3 PSZ Occ Sch Frida\n   **   ~~~   ** Will be processed as Alpha=SP-CORNER_CLASS_1_POD_2_ZN_1_FLR_1 SYS-3 FLR-1 SCH-D HPLCMT-SOUTH ZN NECB SYSTEM 3 PSZ OCC SCH FRIDAY\n   ************* IDF Context for following error/warning message:\n   ************* Note -- lines truncated at 300 characters, if necessary...\n   *************   2238 Schedule:Week:Daily,\n   ************* indicated Name=Schedule:Week:Daily {d5ea85ea-e2c6-4f92-b9a4-4b4e4e746bb7}\n   ************* Only last 8 lines before error line shown.....\n   *************   2239   Schedule:Week:Daily {d5ea85ea-e2c6-4f92-b9a4-4b4e4e746bb7}, !- Name\n   *************   2240   Sp-Corner_Class_1_Pod_2_ZN_1_FLR_1 Sys-3 Flr-1 Sch-D HPlcmt-south ZN NECB System 3 PSZ Occ Sch Sunday, !- Sunday Schedule:Day Name\n   *************   2241   Sp-Corner_Class_1_Pod_2_ZN_1_FLR_1 Sys-3 Flr-1 Sch-D HPlcmt-south ZN NECB System 3 PSZ Occ Sch Monday, !- Monday Schedule:Day Name\n   *************   2242   Sp-Corner_Class_1_Pod_2_ZN_1_FLR_1 Sys-3 Flr-1 Sch-D HPlcmt-south ZN NECB System 3 PSZ Occ Sch Tuesday, !- Tuesday Schedule:Day Name\n   *************   2243   Sp-Corner_Class_1_Pod_2_ZN_1_FLR_1 Sys-3 Flr-1 Sch-D HPlcmt-south ZN NECB System 3 PSZ Occ Sch Wednesday, !- Wednesday Schedule:Day Name\n   *************   2244   Sp-Corner_Class_1_Pod_2_ZN_1_FLR_1 Sys-3 Flr-1 Sch-D HPlcmt-south ZN NECB System 3 PSZ Occ Sch Thursday, !- Thursday Schedule:Day Name\n   *************   2245   Sp-Corner_Class_1_Pod_2_ZN_1_FLR_1 Sys-3 Flr-1 Sch-D HPlcmt-south ZN NECB System 3 PSZ Occ Sch Friday, !- Friday Schedule:Day Name\n   *************   2246   Sp-Corner_Class_1_Pod_2_ZN_1_FLR_1 Sys-3 Flr-1 Sch-D HPlcmt-south ZN NECB System 3 PSZ Occ Sch Saturday, !- Saturday Schedule:Day Name\n   ** Warning ** IP: IDF line~2246 Alpha Argument length exceeds maximum, will be truncated=  Sp-Corner_Class_1_Pod_2_ZN_1_FLR_1 Sys-3 Flr-1 Sch-D HPlcmt-south ZN NECB System 3 PSZ Occ Sch Saturda\n   **   ~~~   ** Will be processed as Alpha=SP-CORNER_CLASS_1_POD_2_ZN_1_FLR_1 SYS-3 FLR-1 SCH-D HPLCMT-SOUTH ZN NECB SYSTEM 3 PSZ OCC SCH SATURDAY\n   ************* IDF Context for following error/warning message:\n   ************* Note -- lines truncated at 300 characters, if necessary...\n   *************   2238 Schedule:Week:Daily,\n   ************* indicated Name=Schedule:Week:Daily {d5ea85ea-e2c6-4f92-b9a4-4b4e4e746bb7}\n   ************* Only last 9 lines before error line shown.....\n   *************   2239   Schedule:Week:Daily {d5ea85ea-e2c6-4f92-b9a4-4b4e4e746bb7}, !- Name\n   *************   2240   Sp-Corner_Class_1_Pod_2_ZN_1_FLR_1 Sys-3 Flr-1 Sch-D HPlcmt-south ZN NECB System 3 PSZ Occ Sch Sunday, !- Sunday Schedule:Day Name\n   *************   2241   Sp-Corner_Class_1_Pod_2_ZN_1_FLR_1 Sys-3 Flr-1 Sch-D HPlcmt-south ZN NECB System 3 PSZ Occ Sch Monday, !- Monday Schedule:Day Name\n   *************   2242   Sp-Corner_Class_1_Pod_2_ZN_1_FLR_1 Sys-3 Flr-1 Sch-D HPlcmt-south ZN NECB System 3 PSZ Occ Sch Tuesday, !- Tuesday Schedule:Day Name\n   *************   2243   Sp-Corner_Class_1_Pod_2_ZN_1_FLR_1 Sys-3 Flr-1 Sch-D HPlcmt-south ZN NECB System 3 PSZ Occ Sch Wednesday, !- Wednesday Schedule:Day Name\n   *************   2244   Sp-Corner_Class_1_Pod_2_ZN_1_FLR_1 Sys-3 Flr-1 Sch-D HPlcmt-south ZN NECB System 3 PSZ Occ Sch Thursday, !- Thursday Schedule:Day Name\n   *************   2245   Sp-Corner_Class_1_Pod_2_ZN_1_FLR_1 Sys-3 Flr-1 Sch-D HPlcmt-south ZN NECB System 3 PSZ Occ Sch Friday, !- Friday Schedule:Day Name\n   *************   2246   Sp-Corner_Class_1_Pod_2_ZN_1_FLR_1 Sys-3 Flr-1 Sch-D HPlcmt-south ZN NECB System 3 PSZ Occ Sch Saturday, !- Saturday Schedule:Day Name\n   *************   2247   Sp-Corner_Class_1_Pod_2_ZN_1_FLR_1 Sys-3 Flr-1 Sch-D HPlcmt-south ZN NECB System 3 PSZ Occ Sch Default, !- Holiday Schedule:Day Name\n   ** Warning ** IP: IDF line~2247 Alpha Argument length exceeds maximum, will be truncated=  Sp-Corner_Class_1_Pod_2_ZN_1_FLR_1 Sys-3 Flr-1 Sch-D HPlcmt-south ZN NECB System 3 PSZ Occ Sch Defaul\n   **   ~~~   ** Will be processed as Alpha=SP-CORNER_CLASS_1_POD_2_ZN_1_FLR_1 SYS-3 FLR-1 SCH-D HPLCMT-SOUTH ZN NECB SYSTEM 3 PSZ OCC SCH DEFAULT\n   ************* IDF Context for following error/warning message:\n   ************* Note -- lines truncated at 300 characters, if necessary...\n   *************   2238 Schedule:Week:Daily,\n   ************* indicated Name=Schedule:Week:Daily {d5ea85ea-e2c6-4f92-b9a4-4b4e4e746bb7}\n   ************* Only last 10 lines before error line shown.....\n   *************   2239   Schedule:Week:Daily {d5ea85ea-e2c6-4f92-b9a4-4b4e4e746bb7}, !- Name\n   *************   2240   Sp-Corner_Class_1_Pod_2_ZN_1_FLR_1 Sys-3 Flr-1 Sch-D HPlcmt-south ZN NECB System 3 PSZ Occ Sch Sunday, !- Sunday Schedule:Day Name\n   *************   2241   Sp-Corner_Class_1_Pod_2_ZN_1_FLR_1 Sys-3 Flr-1 Sch-D HPlcmt-south ZN NECB System 3 PSZ Occ Sch Monday, !- Monday Schedule:Day Name\n   *************   2242   Sp-Corner_Class_1_Pod_2_ZN_1_FLR_1 Sys-3 Flr-1 Sch-D HPlcmt-south ZN NECB System 3 PSZ Occ Sch Tuesday, !- Tuesday Schedule:Day Name\n   *************   2243   Sp-Corner_Class_1_Pod_2_ZN_1_FLR_1 Sys-3 Flr-1 Sch-D HPlcmt-south ZN NECB System 3 PSZ Occ Sch Wednesday, !- Wednesday Schedule:Day Name\n   *************   2244   Sp-Corner_Class_1_Pod_2_ZN_1_FLR_1 Sys-3 Flr-1 Sch-D HPlcmt-south ZN NECB System 3 PSZ Occ Sch Thursday, !- Thursday Schedule:Day Name\n   *************   2245   Sp-Corner_Class_1_Pod_2_ZN_1_FLR_1 Sys-3 Flr-1 Sch-D HPlcmt-south ZN NECB System 3 PSZ Occ Sch Friday, !- Friday Schedule:Day Name\n   *************   2246   Sp-Corner_Class_1_Pod_2_ZN_1_FLR_1 Sys-3 Flr-1 Sch-D HPlcmt-south ZN NECB System 3 PSZ Occ Sch Saturday, !- Saturday Schedule:Day Name\n   *************   2247   Sp-Corner_Class_1_Pod_2_ZN_1_FLR_1 Sys-3 Flr-1 Sch-D HPlcmt-south ZN NECB System 3 PSZ Occ Sch Default, !- Holiday Schedule:Day Name\n   *************   2248   Sp-Corner_Class_1_Pod_2_ZN_1_FLR_1 Sys-3 Flr-1 Sch-D HPlcmt-south ZN NECB System 3 PSZ Occ Sch Summer Design Day, !- SummerDesignDay Schedule:Day Name\n   ** Warning ** IP: IDF line~2248 Alpha Argument length exceeds maximum, will be truncated=  Sp-Corner_Class_1_Pod_2_ZN_1_FLR_1 Sys-3 Flr-1 Sch-D HPlcmt-south ZN NECB System 3 PSZ Occ Sch Summer Design Da\n   **   ~~~   ** Will be processed as Alpha=SP-CORNER_CLASS_1_POD_2_ZN_1_FLR_1 SYS-3 FLR-1 SCH-D HPLCMT-SOUTH ZN NECB SYSTEM 3 PSZ OCC SCH SUMMER DESIGN DAY\n   ************* IDF Context for following error/warning message:\n   ************* Note -- lines truncated at 300 characters, if necessary...\n   *************   2238 Schedule:Week:Daily,\n   ************* indicated Name=Schedule:Week:Daily {d5ea85ea-e2c6-4f92-b9a4-4b4e4e746bb7}\n   ************* Only last 10 lines before error line shown.....\n   *************   2240   Sp-Corner_Class_1_Pod_2_ZN_1_FLR_1 Sys-3 Flr-1 Sch-D HPlcmt-south ZN NECB System 3 PSZ Occ Sch Sunday, !- Sunday Schedule:Day Name\n   *************   2241   Sp-Corner_Class_1_Pod_2_ZN_1_FLR_1 Sys-3 Flr-1 Sch-D HPlcmt-south ZN NECB System 3 PSZ Occ Sch Monday, !- Monday Schedule:Day Name\n   *************   2242   Sp-Corner_Class_1_Pod_2_ZN_1_FLR_1 Sys-3 Flr-1 Sch-D HPlcmt-south ZN NECB System 3 PSZ Occ Sch Tuesday, !- Tuesday Schedule:Day Name\n   *************   2243   Sp-Corner_Class_1_Pod_2_ZN_1_FLR_1 Sys-3 Flr-1 Sch-D HPlcmt-south ZN NECB System 3 PSZ Occ Sch Wednesday, !- Wednesday Schedule:Day Name\n   *************   2244   Sp-Corner_Class_1_Pod_2_ZN_1_FLR_1 Sys-3 Flr-1 Sch-D HPlcmt-south ZN NECB System 3 PSZ Occ Sch Thursday, !- Thursday Schedule:Day Name\n   *************   2245   Sp-Corner_Class_1_Pod_2_ZN_1_FLR_1 Sys-3 Flr-1 Sch-D HPlcmt-south ZN NECB System 3 PSZ Occ Sch Friday, !- Friday Schedule:Day Name\n   *************   2246   Sp-Corner_Class_1_Pod_2_ZN_1_FLR_1 Sys-3 Flr-1 Sch-D HPlcmt-south ZN NECB System 3 PSZ Occ Sch Saturday, !- Saturday Schedule:Day Name\n   *************   2247   Sp-Corner_Class_1_Pod_2_ZN_1_FLR_1 Sys-3 Flr-1 Sch-D HPlcmt-south ZN NECB System 3 PSZ Occ Sch Default, !- Holiday Schedule:Day Name\n   *************   2248   Sp-Corner_Class_1_Pod_2_ZN_1_FLR_1 Sys-3 Flr-1 Sch-D HPlcmt-south ZN NECB System 3 PSZ Occ Sch Summer Design Day, !- SummerDesignDay Schedule:Day Name\n   *************   2249   Sp-Corner_Class_1_Pod_2_ZN_1_FLR_1 Sys-3 Flr-1 Sch-D HPlcmt-south ZN NECB System 3 PSZ Occ Sch Winter Design Day, !- WinterDesignDay Schedule:Day Name\n   ** Warning ** IP: IDF line~2249 Alpha Argument length exceeds maximum, will be truncated=  Sp-Corner_Class_1_Pod_2_ZN_1_FLR_1 Sys-3 Flr-1 Sch-D HPlcmt-south ZN NECB System 3 PSZ Occ Sch Winter Design Da\n   **   ~~~   ** Will be processed as Alpha=SP-CORNER_CLASS_1_POD_2_ZN_1_FLR_1 SYS-3 FLR-1 SCH-D HPLCMT-SOUTH ZN NECB SYSTEM 3 PSZ OCC SCH WINTER DESIGN DAY\n   ************* IDF Context for following error/warning message:\n   ************* Note -- lines truncated at 300 characters, if necessary...\n   *************   2238 Schedule:Week:Daily,\n   ************* indicated Name=Schedule:Week:Daily {d5ea85ea-e2c6-4f92-b9a4-4b4e4e746bb7}\n   ************* Only last 10 lines before error line shown.....\n   *************   2241   Sp-Corner_Class_1_Pod_2_ZN_1_FLR_1 Sys-3 Flr-1 Sch-D HPlcmt-south ZN NECB System 3 PSZ Occ Sch Monday, !- Monday Schedule:Day Name\n   *************   2242   Sp-Corner_Class_1_Pod_2_ZN_1_FLR_1 Sys-3 Flr-1 Sch-D HPlcmt-south ZN NECB System 3 PSZ Occ Sch Tuesday, !- Tuesday Schedule:Day Name\n   *************   2243   Sp-Corner_Class_1_Pod_2_ZN_1_FLR_1 Sys-3 Flr-1 Sch-D HPlcmt-south ZN NECB System 3 PSZ Occ Sch Wednesday, !- Wednesday Schedule:Day Name\n   *************   2244   Sp-Corner_Class_1_Pod_2_ZN_1_FLR_1 Sys-3 Flr-1 Sch-D HPlcmt-south ZN NECB System 3 PSZ Occ Sch Thursday, !- Thursday Schedule:Day Name\n   *************   2245   Sp-Corner_Class_1_Pod_2_ZN_1_FLR_1 Sys-3 Flr-1 Sch-D HPlcmt-south ZN NECB System 3 PSZ Occ Sch Friday, !- Friday Schedule:Day Name\n   *************   2246   Sp-Corner_Class_1_Pod_2_ZN_1_FLR_1 Sys-3 Flr-1 Sch-D HPlcmt-south ZN NECB System 3 PSZ Occ Sch Saturday, !- Saturday Schedule:Day Name\n   *************   2247   Sp-Corner_Class_1_Pod_2_ZN_1_FLR_1 Sys-3 Flr-1 Sch-D HPlcmt-south ZN NECB System 3 PSZ Occ Sch Default, !- Holiday Schedule:Day Name\n   *************   2248   Sp-Corner_Class_1_Pod_2_ZN_1_FLR_1 Sys-3 Flr-1 Sch-D HPlcmt-south ZN NECB System 3 PSZ Occ Sch Summer Design Day, !- SummerDesignDay Schedule:Day Name\n   *************   2249   Sp-Corner_Class_1_Pod_2_ZN_1_FLR_1 Sys-3 Flr-1 Sch-D HPlcmt-south ZN NECB System 3 PSZ Occ Sch Winter Design Day, !- WinterDesignDay Schedule:Day Name\n   *************   2250   Sp-Corner_Class_1_Pod_2_ZN_1_FLR_1 Sys-3 Flr-1 Sch-D HPlcmt-south ZN NECB System 3 PSZ Occ Sch Default, !- CustomDay1 Schedule:Day Name\n   ** Warning ** IP: IDF line~2250 Alpha Argument length exceeds maximum, will be truncated=  Sp-Corner_Class_1_Pod_2_ZN_1_FLR_1 Sys-3 Flr-1 Sch-D HPlcmt-south ZN NECB System 3 PSZ Occ Sch Defaul\n   **   ~~~   ** Will be processed as Alpha=SP-CORNER_CLASS_1_POD_2_ZN_1_FLR_1 SYS-3 FLR-1 SCH-D HPLCMT-SOUTH ZN NECB SYSTEM 3 PSZ OCC SCH DEFAULT\n   ************* IDF Context for following error/warning message:\n   ************* Note -- lines truncated at 300 characters, if necessary...\n   *************   2238 Schedule:Week:Daily,\n   ************* indicated Name=Schedule:Week:Daily {d5ea85ea-e2c6-4f92-b9a4-4b4e4e746bb7}\n   ************* Only last 10 lines before error line shown.....\n   *************   2242   Sp-Corner_Class_1_Pod_2_ZN_1_FLR_1 Sys-3 Flr-1 Sch-D HPlcmt-south ZN NECB System 3 PSZ Occ Sch Tuesday, !- Tuesday Schedule:Day Name\n   *************   2243   Sp-Corner_Class_1_Pod_2_ZN_1_FLR_1 Sys-3 Flr-1 Sch-D HPlcmt-south ZN NECB System 3 PSZ Occ Sch Wednesday, !- Wednesday Schedule:Day Name\n   *************   2244   Sp-Corner_Class_1_Pod_2_ZN_1_FLR_1 Sys-3 Flr-1 Sch-D HPlcmt-south ZN NECB System 3 PSZ Occ Sch Thursday, !- Thursday Schedule:Day Name\n   *************   2245   Sp-Corner_Class_1_Pod_2_ZN_1_FLR_1 Sys-3 Flr-1 Sch-D HPlcmt-south ZN NECB System 3 PSZ Occ Sch Friday, !- Friday Schedule:Day Name\n   *************   2246   Sp-Corner_Class_1_Pod_2_ZN_1_FLR_1 Sys-3 Flr-1 Sch-D HPlcmt-south ZN NECB System 3 PSZ Occ Sch Saturday, !- Saturday Schedule:Day Name\n   *************   2247   Sp-Corner_Class_1_Pod_2_ZN_1_FLR_1 Sys-3 Flr-1 Sch-D HPlcmt-south ZN NECB System 3 PSZ Occ Sch Default, !- Holiday Schedule:Day Name\n   *************   2248   Sp-Corner_Class_1_Pod_2_ZN_1_FLR_1 Sys-3 Flr-1 Sch-D HPlcmt-south ZN NECB System 3 PSZ Occ Sch Summer Design Day, !- SummerDesignDay Schedule:Day Name\n   *************   2249   Sp-Corner_Class_1_Pod_2_ZN_1_FLR_1 Sys-3 Flr-1 Sch-D HPlcmt-south ZN NECB System 3 PSZ Occ Sch Winter Design Day, !- WinterDesignDay Schedule:Day Name\n   *************   2250   Sp-Corner_Class_1_Pod_2_ZN_1_FLR_1 Sys-3 Flr-1 Sch-D HPlcmt-south ZN NECB System 3 PSZ Occ Sch Default, !- CustomDay1 Schedule:Day Name\n   *************   2251   Sp-Corner_Class_1_Pod_2_ZN_1_FLR_1 Sys-3 Flr-1 Sch-D HPlcmt-south ZN NECB System 3 PSZ Occ Sch Default; !- CustomDay2 Schedule:Day Name\n   ** Warning ** IP: IDF line~2251 Alpha Argument length exceeds maximum, will be truncated=  Sp-Corner_Class_1_Pod_2_ZN_1_FLR_1 Sys-3 Flr-1 Sch-D HPlcmt-south ZN NECB System 3 PSZ Occ Sch Defaul\n   **   ~~~   ** Will be processed as Alpha=SP-CORNER_CLASS_1_POD_2_ZN_1_FLR_1 SYS-3 FLR-1 SCH-D HPLCMT-SOUTH ZN NECB SYSTEM 3 PSZ OCC SCH DEFAULT\n   ************* IDF Context for following error/warning message:\n   ************* Note -- lines truncated at 300 characters, if necessary...\n   *************   2262 Schedule:Day:Interval,\n   ************* indicated Name=Sp-Corner_Class_1_Pod_2_ZN_1_FLR_1 Sys-3 Flr-1 Sch-D HPlcmt-south ZN NECB System 3 PSZ Occ Sch Default\n   ************* Only last 1 lines before error line shown.....\n   *************   2263   Sp-Corner_Class_1_Pod_2_ZN_1_FLR_1 Sys-3 Flr-1 Sch-D HPlcmt-south ZN NECB System 3 PSZ Occ Sch Default, !- Name\n   ** Warning ** IP: IDF line~2263 Alpha Argument length exceeds maximum, will be truncated=  Sp-Corner_Class_1_Pod_2_ZN_1_FLR_1 Sys-3 Flr-1 Sch-D HPlcmt-south ZN NECB System 3 PSZ Occ Sch Defaul\n   **   ~~~   ** Will be processed as Alpha=SP-CORNER_CLASS_1_POD_2_ZN_1_FLR_1 SYS-3 FLR-1 SCH-D HPLCMT-SOUTH ZN NECB SYSTEM 3 PSZ OCC SCH DEFAULT\n   ************* IDF Context for following error/warning message:\n   ************* Note -- lines truncated at 300 characters, if necessary...\n   *************   2269 Schedule:Day:Interval,\n   ************* indicated Name=Sp-Corner_Class_1_Pod_2_ZN_1_FLR_1 Sys-3 Flr-1 Sch-D HPlcmt-south ZN NECB System 3 PSZ Occ Sch Summer Design Day\n   ************* Only last 1 lines before error line shown.....\n   *************   2270   Sp-Corner_Class_1_Pod_2_ZN_1_FLR_1 Sys-3 Flr-1 Sch-D HPlcmt-south ZN NECB System 3 PSZ Occ Sch Summer Design Day, !- Name\n   ** Warning ** IP: IDF line~2270 Alpha Argument length exceeds maximum, will be truncated=  Sp-Corner_Class_1_Pod_2_ZN_1_FLR_1 Sys-3 Flr-1 Sch-D HPlcmt-south ZN NECB System 3 PSZ Occ Sch Summer Design Da\n   **   ~~~   ** Will be processed as Alpha=SP-CORNER_CLASS_1_POD_2_ZN_1_FLR_1 SYS-3 FLR-1 SCH-D HPLCMT-SOUTH ZN NECB SYSTEM 3 PSZ OCC SCH SUMMER DESIGN DAY\n   ************* IDF Context for following error/warning message:\n   ************* Note -- lines truncated at 300 characters, if necessary...\n   *************   2276 Schedule:Day:Interval,\n   ************* indicated Name=Sp-Corner_Class_1_Pod_2_ZN_1_FLR_1 Sys-3 Flr-1 Sch-D HPlcmt-south ZN NECB System 3 PSZ Occ Sch Winter Design Day\n   ************* Only last 1 lines before error line shown.....\n   *************   2277   Sp-Corner_Class_1_Pod_2_ZN_1_FLR_1 Sys-3 Flr-1 Sch-D HPlcmt-south ZN NECB System 3 PSZ Occ Sch Winter Design Day, !- Name\n   ** Warning ** IP: IDF line~2277 Alpha Argument length exceeds maximum, will be truncated=  Sp-Corner_Class_1_Pod_2_ZN_1_FLR_1 Sys-3 Flr-1 Sch-D HPlcmt-south ZN NECB System 3 PSZ Occ Sch Winter Design Da\n   **   ~~~   ** Will be processed as Alpha=SP-CORNER_CLASS_1_POD_2_ZN_1_FLR_1 SYS-3 FLR-1 SCH-D HPLCMT-SOUTH ZN NECB SYSTEM 3 PSZ OCC SCH WINTER DESIGN DAY\n   ************* IDF Context for following error/warning message:\n   ************* Note -- lines truncated at 300 characters, if necessary...\n   *************   2545 Schedule:Day:Interval,\n   ************* indicated Name=Sp-Corner_Class_1_Pod_3_ZN_1_FLR_1 Sys-3 Flr-1 Sch-D HPlcmt-south ZN NECB System 3 PSZ Occ Sch Sunday\n   ************* Only last 1 lines before error line shown.....\n   *************   2546   Sp-Corner_Class_1_Pod_3_ZN_1_FLR_1 Sys-3 Flr-1 Sch-D HPlcmt-south ZN NECB System 3 PSZ Occ Sch Sunday, !- Name\n   ** Warning ** IP: IDF line~2546 Alpha Argument length exceeds maximum, will be truncated=  Sp-Corner_Class_1_Pod_3_ZN_1_FLR_1 Sys-3 Flr-1 Sch-D HPlcmt-south ZN NECB System 3 PSZ Occ Sch Sunda\n   **   ~~~   ** Will be processed as Alpha=SP-CORNER_CLASS_1_POD_3_ZN_1_FLR_1 SYS-3 FLR-1 SCH-D HPLCMT-SOUTH ZN NECB SYSTEM 3 PSZ OCC SCH SUNDAY\n   ************* IDF Context for following error/warning message:\n   ************* Note -- lines truncated at 300 characters, if necessary...\n   *************   2552 Schedule:Day:Interval,\n   ************* indicated Name=Sp-Corner_Class_1_Pod_3_ZN_1_FLR_1 Sys-3 Flr-1 Sch-D HPlcmt-south ZN NECB System 3 PSZ Occ Sch Monday\n   ************* Only last 1 lines before error line shown.....\n   *************   2553   Sp-Corner_Class_1_Pod_3_ZN_1_FLR_1 Sys-3 Flr-1 Sch-D HPlcmt-south ZN NECB System 3 PSZ Occ Sch Monday, !- Name\n   ** Warning ** IP: IDF line~2553 Alpha Argument length exceeds maximum, will be truncated=  Sp-Corner_Class_1_Pod_3_ZN_1_FLR_1 Sys-3 Flr-1 Sch-D HPlcmt-south ZN NECB System 3 PSZ Occ Sch Monda\n   **   ~~~   ** Will be processed as Alpha=SP-CORNER_CLASS_1_POD_3_ZN_1_FLR_1 SYS-3 FLR-1 SCH-D HPLCMT-SOUTH ZN NECB SYSTEM 3 PSZ OCC SCH MONDAY\n   ************* IDF Context for following error/warning message:\n   ************* Note -- lines truncated at 300 characters, if necessary...\n   *************   2567 Schedule:Day:Interval,\n   ************* indicated Name=Sp-Corner_Class_1_Pod_3_ZN_1_FLR_1 Sys-3 Flr-1 Sch-D HPlcmt-south ZN NECB System 3 PSZ Occ Sch Tuesday\n   ************* Only last 1 lines before error line shown.....\n   *************   2568   Sp-Corner_Class_1_Pod_3_ZN_1_FLR_1 Sys-3 Flr-1 Sch-D HPlcmt-south ZN NECB System 3 PSZ Occ Sch Tuesday, !- Name\n   ** Warning ** IP: IDF line~2568 Alpha Argument length exceeds maximum, will be truncated=  Sp-Corner_Class_1_Pod_3_ZN_1_FLR_1 Sys-3 Flr-1 Sch-D HPlcmt-south ZN NECB System 3 PSZ Occ Sch Tuesda\n   **   ~~~   ** Will be processed as Alpha=SP-CORNER_CLASS_1_POD_3_ZN_1_FLR_1 SYS-3 FLR-1 SCH-D HPLCMT-SOUTH ZN NECB SYSTEM 3 PSZ OCC SCH TUESDAY\n   ************* IDF Context for following error/warning message:\n   ************* Note -- lines truncated at 300 characters, if necessary...\n   *************   2582 Schedule:Day:Interval,\n   ************* indicated Name=Sp-Corner_Class_1_Pod_3_ZN_1_FLR_1 Sys-3 Flr-1 Sch-D HPlcmt-south ZN NECB System 3 PSZ Occ Sch Wednesday\n   ************* Only last 1 lines before error line shown.....\n   *************   2583   Sp-Corner_Class_1_Pod_3_ZN_1_FLR_1 Sys-3 Flr-1 Sch-D HPlcmt-south ZN NECB System 3 PSZ Occ Sch Wednesday, !- Name\n   ** Warning ** IP: IDF line~2583 Alpha Argument length exceeds maximum, will be truncated=  Sp-Corner_Class_1_Pod_3_ZN_1_FLR_1 Sys-3 Flr-1 Sch-D HPlcmt-south ZN NECB System 3 PSZ Occ Sch Wednesda\n   **   ~~~   ** Will be processed as Alpha=SP-CORNER_CLASS_1_POD_3_ZN_1_FLR_1 SYS-3 FLR-1 SCH-D HPLCMT-SOUTH ZN NECB SYSTEM 3 PSZ OCC SCH WEDNESDAY\n   ************* IDF Context for following error/warning message:\n   ************* Note -- lines truncated at 300 characters, if necessary...\n   *************   2597 Schedule:Day:Interval,\n   ************* indicated Name=Sp-Corner_Class_1_Pod_3_ZN_1_FLR_1 Sys-3 Flr-1 Sch-D HPlcmt-south ZN NECB System 3 PSZ Occ Sch Thursday\n   ************* Only last 1 lines before error line shown.....\n   *************   2598   Sp-Corner_Class_1_Pod_3_ZN_1_FLR_1 Sys-3 Flr-1 Sch-D HPlcmt-south ZN NECB System 3 PSZ Occ Sch Thursday, !- Name\n   ** Warning ** IP: IDF line~2598 Alpha Argument length exceeds maximum, will be truncated=  Sp-Corner_Class_1_Pod_3_ZN_1_FLR_1 Sys-3 Flr-1 Sch-D HPlcmt-south ZN NECB System 3 PSZ Occ Sch Thursda\n   **   ~~~   ** Will be processed as Alpha=SP-CORNER_CLASS_1_POD_3_ZN_1_FLR_1 SYS-3 FLR-1 SCH-D HPLCMT-SOUTH ZN NECB SYSTEM 3 PSZ OCC SCH THURSDAY\n   ************* IDF Context for following error/warning message:\n   ************* Note -- lines truncated at 300 characters, if necessary...\n   *************   2612 Schedule:Day:Interval,\n   ************* indicated Name=Sp-Corner_Class_1_Pod_3_ZN_1_FLR_1 Sys-3 Flr-1 Sch-D HPlcmt-south ZN NECB System 3 PSZ Occ Sch Friday\n   ************* Only last 1 lines before error line shown.....\n   *************   2613   Sp-Corner_Class_1_Pod_3_ZN_1_FLR_1 Sys-3 Flr-1 Sch-D HPlcmt-south ZN NECB System 3 PSZ Occ Sch Friday, !- Name\n   ** Warning ** IP: IDF line~2613 Alpha Argument length exceeds maximum, will be truncated=  Sp-Corner_Class_1_Pod_3_ZN_1_FLR_1 Sys-3 Flr-1 Sch-D HPlcmt-south ZN NECB System 3 PSZ Occ Sch Frida\n   **   ~~~   ** Will be processed as Alpha=SP-CORNER_CLASS_1_POD_3_ZN_1_FLR_1 SYS-3 FLR-1 SCH-D HPLCMT-SOUTH ZN NECB SYSTEM 3 PSZ OCC SCH FRIDAY\n   ************* IDF Context for following error/warning message:\n   ************* Note -- lines truncated at 300 characters, if necessary...\n   *************   2627 Schedule:Day:Interval,\n   ************* indicated Name=Sp-Corner_Class_1_Pod_3_ZN_1_FLR_1 Sys-3 Flr-1 Sch-D HPlcmt-south ZN NECB System 3 PSZ Occ Sch Saturday\n   ************* Only last 1 lines before error line shown.....\n   *************   2628   Sp-Corner_Class_1_Pod_3_ZN_1_FLR_1 Sys-3 Flr-1 Sch-D HPlcmt-south ZN NECB System 3 PSZ Occ Sch Saturday, !- Name\n   ** Warning ** IP: IDF line~2628 Alpha Argument length exceeds maximum, will be truncated=  Sp-Corner_Class_1_Pod_3_ZN_1_FLR_1 Sys-3 Flr-1 Sch-D HPlcmt-south ZN NECB System 3 PSZ Occ Sch Saturda\n   **   ~~~   ** Will be processed as Alpha=SP-CORNER_CLA
[...]
Dzom634POj7sPg86Fu0+Dzo+xL5POhbFvk86LsZ+TzoGx35PGrIc83tkXweNeS55qZKPo8aVnJNWaXzKH1DSbWyavEKEwYLuqxis6A7g82C7gs2C7qsYrOgyyo2C7qsYrOgyyo2C3q6ZbPQlFV8HvR0y+dBT7d8HnRZxedBl1V8HnRZxedBl1V8HnRZxedBl1V8HjXkuaas4vOoIc81ZRWfRw0ruaas0nmUbgRfraxa7BTPYEGXVWwWdGewWdB9wWZBl1VsFnRZxWZBl1VsFnRZxWZBT7dsFpqyis+Dnm75POjpls+DLqv4POiyis+DLqv4POiyis+DLqv4POiyis+jhjzXlFV8HjXkuaas4vOoYSXXlFU6j9L9dquVVYsNeRks6LKKzYLuDDYLui/YLOiyis2CLqvYLOiyis2CLqvYLOjpls1CU1bxedDTLZ8HPd3yedBlFZ8HXVbxedBlFZ8HXVbxedBlFZ8HXVbxedSQ55qyis+jhjzXlFV8HjWs5JqySudRuq1htbJqse8hgwVdVrFZ0J3BZkH3BZsFXVaxWdBlFZsFXVaxWdBlFZsFPd2yWWg3W+Py0O1WxeWh28iKy0O3xxWXh277Ky4P3Z5vXB667eC4PHQ7xXF56DaR4/KoIc+1W89xedSQ59oN67g8aljJNWXVyuN7lR1elzs6iyMRyfvVDrLFxrGN9G7cLHaALd0qdrUtdCqz9/Es8tNGt90UjtNtio76ze1W2272Icd42u3a9/teJsdxMj9+CNLFtspP119h7+lc4DzxZXIxU7scVz5RccxfcnySXjpL5AJDbdS8bPcN7/uNMMIII4wwwggjjDDCCCOMMMIII4wwwggjjDDCCCOMMMIII4wwwggjjDDCCCOMMMIII4wwwggjjDDCCCOMMMIII4wwwggjjPDfKjy34zuZJIEvP3nqwVrHbv/F51XVo7Hpy0djL2USyHT5eK3VXD1APA3jzA6DSJY+Ipu+9pxu+ZO1qV28en4ah14WxFEOZaWZnLau5ShOpFXtyeePciwj/+UFLT5r9NpN0VFPLrfVg8zqhxXKUabASqRXsvZgLLPTKFPtk1uMZtGwIG1siz9KJFaE8unsq9JnudURjEQjmwSpnRa9Us1IHc9OsvP2O/WGk8Z/gU3VVvjq0fGcfak7mMZpoARP8o+rXM3qUDKvUCXxvRnSCiuIfKnyoeU0Dc9eHTfrnjgKZKjGW2PZpos8GSfxbCp98fPP4h/Lzx/swcRLl8+/qwTbfh6dvxrNG8T2xuMz5WGHMhpnE/FOuOL/hHUchpY4fPmNNAyGstFytq/a37dL8+1PVxInonGTX0r7F3GT2yyH6tJXffbPfMYx7yB1qGG81Lu6+W7/kHNxdHS0aLz1FAvVZbffmF7q6rhOpPdjnZMfDc8x/b5qr+XVHalhrQbDcqQUGznYAy9Ng3Ek/b7aIiK9Klry+3pNuero6SydNNbti7xLDxf9uX4mheFhlau01TfXdUmzJP4hq/ksvruuUzz1hkE2r2a1/PLaV1VYrKzWVVlNJC+nlXXSw3jyUccqnV9OPKIlHFM1k3SrzvrYLFbVSt9/LKsp1LGzI778/lX85/z3C3F5fvH1t8+/io/nv/7WFx9OL06rCZzls7Z88FSJJrJYpHGSiWh2m4+DoSi2NEmFlw7z4iWIxhUUV22vdJ6tzF5TXFefXBKZzZJITL0klWdh7GUNT03523lXPvvsuvisUmOWl2jPbJeXUCb8uNmdXp7qzyLdi2RvbPly5M3CTEyTOJ/D5FZTbP20v9/vn55ubXjjGeAABzjAAQ5wgAMc4AAHOMD5e+KIdHab/xNY+FJ9KHxvrogS6YMGNKABDWhAAxrQgAY0oAENaPQ098WtWf9Dcx3OJHCAAxzgAAc4wAEOcIADHOAAZx2cp/cGOuq9gZcz6r2BHaf4C9vx8e7uwQFIQQpSkIIUpCAFKUhBClKQghSkIH0bpG5B6mUUabsg7XRcd78HUpCCFKQgBSlIQQpSkIIUpCAFKUjfBmlHkZ4lAUHqHhSkjrO31+mAFKQgBSlIQQpSkIIUpCAFKUhBCtK3QbqrSL9OZhTpfkF6kB/d9yAFKUhBClKQghSkIAUpSEEKUpCC9G2QdhXpv6VPke4VpCcn/f7eHkhBClKQghSkIAUpSEEKUpCCFKQgfRukveJ/JmaSIu0VpP1+rwdSkIIUpCAFKUhBClKQghSkIAUpSN8K6Z4i/RRTOwu63YJ0f991u12QghSkIAUpSEEKUpCCFKQgBSlIQVob6QrFT7z7RqnYg50FWSgvJ95U2pl8yBpbH+JZkpZjzP985klwK6M0iKNQpoVCicTOjjj2feGJQkncB9lEpPGtFH6n5Mz0bmx706mM/IalvK3tkhNWh+1lWdKwHqym6LUNT5rnJ7nVT0qzeSgXeC0vGk7iJD/fCuXIgHapMYqjrHUvg/EkUxrXcehX11j0zeW09WkWZoN+mI/RgTP4EvuDzuDb5/zXs48XA0dcztNWR5yFSSv/fThpnYgPX8LhbdZK41neL98+i8+n/ffqa5m8FR3x5fKbOB8O1Xe3tnU9/W4nHSbBNPsX+Z13O35w93qYPIcWy7VE4B9ZQ5UG/bzlvCCSycBxXEsU7Xlk+UE6Db35YRCFeax1HcbDH79YNGCuurgGkc2n+fmqSXduvDtv8an2THXceYkasuJI+MHtNJR2JO8v78YN66dXIJtit90ufpTmoNL1vczLha/+sELvWobWoeXLkZd3tZgm8SgIpdVcRAYP1qFjt5vWnRfO5PL3oZqq8nPy2affPz21HpuVdFwmnQ6Tzi6TTpdJp8eks8eks8+kc8Ck47S5hLhGtMM1pB2uMe1wDWqHa1Q7XMPa4RrXDtfAdrhGtss1sl22uZprZLtcI9s1Gtkind3evnh3daUVLZG+gQzZRmYyZAuZyZDtYyZD5r2ZDJn1ZjJkzpvJkBlvJkPmu5kMvZAZ6jCNY3oZM9RhGsn0ImaowzSW6SXMUIdpNNMLmKEO03imly9DHa55mWk802uXoU718XwfRJn5snWtPqquQzaPoQ7ZPIY6ZPMY6pDpbqhDpruhDpnuhjpkuhvqkOluqEOvX6ZCXCOaXsFMhbjGNL2GmQpxjWp6FTMV4hrX9DpmKsQ1sumVzFSIba7mGtn0YmYqVH1kP/0xo/Rlw9Qy137xD73F24gZLNzNW3Q2b7G7eYvu5i16m7fY27zF/uYtDjZv8WJl35RHDfnt1JDgTg0Z7tSQ4k4NOe7UkORODVnu1JDmTg157taQ524d63gNee7WkOfuenle+k7HamXV4qWPDBZ0b7BZ0J3BZkH3BZsFPeWyWdAzLpsFPeGyWdDzLZsFPd2yWWjKKj6PGvJbU1bxedSQ4Zqyis+jhhzXlFV8HjVkuaas4vOoIc81ZRWfRx3reA15rimr+DzWy/PSV2dVK6sW79ZisKB7g82C7gw2C7ov2CzoKZfNgp5x2SzoCZfNgp5v2Szo6ZbNQnNDIJ8HfUcVnwd9sxWfB30fFp8HfYsWnwd9XyKfB33LIp8HfTcjnwd9oyOfRw15rrk9ks+jhjzX3FTJ51HDSq4pq3QepW8oqVZWLV5hwmBBl1VsFnRnsFnQfcFmQZdVbBZ0WcVmQZdVbBZ0WcVmQU+3bBaasorPg55u+Tzo6ZbPgy6r+DzosorPgy6r+DzosorPgy6r+DzosorPo4Y815RVfB415LmmrOLzqGEl15RVOo/SjeCrlVWLneIZLOiyis2C7gw2C7ov2CzosorNgi6r2CzosorNgi6r2Czo6ZbNQlNW8XnQ0y2fBz3d8nnQZRWfB11W8XnQZRWfB11W8XnQZRWfB11W8XnUkOeasorPo4Y815RVfB41rOSaskrnUbrfbrWyarEhL4MFXVaxWdCdwWZB9wWbBV1WsVnQZRWbBV1WsVnQZRWbBT3dslloyio+D3q65fOgp1s+D7qs4vOgyyo+D7qs4vOgyyo+D7qs4vOgyyo+jxryXFNW8XnUkOeasorPo4aVXFNW6TxKtzWsVlYt9j1ksKDLKjYLujPYLOi+YLOgyyo2C7qsYrOgyyo2C7qsYrOgp1s2C+1ma1weut2quDx0G1lxeej2uOLy0G1/xeWh2/ONy0O3HRyXh26nOC4P3SZyXB415Ll26zkujxryXLthHZdHDSu5pqxaeXyvssPrckdncSQieb/aQbbYOLaR3o2bxQ6wpVvFrraFTmX2Pp5FftrotpvCcbpN0VG/ud1q280+5BhPu137ft/L5DhO5scPQbrYVvnp+ivsPZ0LnCe+TC5mapfjyicqjvlLjk/SS2eJXGCojZqX7b7hfb8RRhhhhBFGGGGEEUYYYYQRRhhhhBFGGGGEEUYYYYQRRhhhhBFGGGGEEUYYYYQRRhhhhBFGGGGEEUYYYYQRRhhhhBFGGGGEEf5bhed2fCeTJPDlJ089WOvY7b/4vKp6NDZ9+WjspUwCmS4fr7WaqweIp2Gc2WEQydJHZNPXntMtf7I2tYtXz0/j0MuCOMqhrDST09a1HMWJtKo9+fxRjmXkv7ygxWeNXrspOurJ5bZ6kFn9sEI5yhRYifRK1h6MZXYaZap9covRLBoWpI1t8UeJxIpQPp19VfostzqCkWhkkyC106JXqhmp49lJdt5+p95w0vgvsKnaCl89Op6zL3UH0zgNlOBJ/nGVq1kdSuYVqiS+N0NaYQWRL1U+tJym4dmr42bdE0eBDNV4ayzbdJEn4ySeTaUvfv5Z/GP5+YM9mHjp8vl3lWDbz6PzV6N5g9jeeHymPOxQRuNsIt4JV/yfsI7D0BKHL7+RhsFQNlrO9lX7+3Zpvv3pSuJENG7yS2n/Im5ym+VQXfqqz/6ZzzjmHaQONYyXelc33+0fci6Ojo4WjbeeYqG67PYb00tdHdeJ9H6sc/Kj4Tmm31fttby6IzWs1WBYjpRiIwd74KVpMI6k31dbRKRXRUt+X68pVx09naWTxrp9kXfp4aI/18+kMDyscpW2+ua6LmmWxD9kNZ/Fd9d1iqfeMMjm1ayWX177qgqLldW6KquJ5OW0sk56GE8+6lil88uJR7SEY6pmkm7VWR+bxapa6fuPZTWFOnZ2xJffv4r/nP9+IS7PL77+9vlX8fH819/64sPpxWk1gbN81pYPnirRRBaLNE4yEc1u83EwFMWWJqnw0mFevATRuILiqu2VzrOV2WuK6+qTSyKzWRKJqZek8iyMvazhqSl/O+/KZ59dF59VaszyEu2Z7fISyoQfN7vTy1P9WaR7keyNLV+OvFmYiWkS53OY3GqKrZ/29/v909OtDW88AxzgAAc4wAEOcIADHOAABzh/TxyRzm7zfwILX6oPhe/NFVEifdCABjSgAQ1oQAMa0IAGNKABjZ7mvrg1639orsOZBA5wgAMc4AAHOMABDnCAAxzgrIPz9N5AR7038HJGvTew4xR/YTs+3t09OAApSEEKUpCCFKQgBSlIQQpSkIIUpG+D1C1IvYwibReknY7r7vdAClKQghSkIAUpSEEKUpCCFKQgBenbIO0o0rMkIEjdg4LUcfb2Oh2QghSkIAUpSEEKUpCCFKQgBSlIQfo2SHcV6dfJjCLdL0gP8qP7HqQgBSlIQQpSkIIUpCAFKUhBClKQvg3SriL9t/Qp0r2C9OSk39/bAylIQQpSkIIUpCAFKUhBClKQghSkb4O0V/zPxExSpL2CtN/v9UAKUpCCFKQgBSlIQQpSkIIUpCAF6Vsh3VOkn2JqZ0G3W5Du77tutwtSkIIUpCAFKUhBClKQghSkIAUpSGsjXaH4iXffKBV7sLMgC+XlxJtKO5MPWWPrQzxL0nKM+Z/PPAluZZQGcRTKtFAokdjZEce+LzxRKIn7IJuINL6Vwu+UnJnejW1vOpWR37CUt7VdcsLqsL0sSxrWg9UUvbbhSfP8JLf6SWk2D+UCr+VFw0mc5OdboRwZ0C41RnGUte5lMJ5kSuM6Dv3qGou+uZy2Ps3CbNAP8zE6cAdfYn/gDL59zn+cfbwYOOJynrY64ixMWvnvw0nrRHz4Eg5vs1YUJ3m/fPssPp/236uvZfJWdMSXy2/ifDhU393a1vX0u510mATT7F/kd97t+MHd62HyHFos1xKBf2QNVRr085bzgkgmA8fpWKJozyPLD9Jp6M0PgyjMY63rMB7++MWiAXPVxTWIbD7Nz1dNunPj3XmLT7VnquPOS9SQFUfCD26nobQjeX95N25YP70C2RS77XbxozQHla7vZV4ufPWHFXrXMrQOLV+OvLyrxTSJR0EoreYiMniwDh273bTuvHAml78P1VSVn5PPPv3+6an12Kyk4zLpdJh0dpl0ukw6PSadPSadfSadAyYdp80lxDWiHa4h7XCNaYdrUDtco9rhGtYO17h2uAa2wzWyXa6R7bLN1Vwj2+Ua2a7RyBbp7Pb2xburK61oifQNZMg2MpMhW8hMhmwfMxky781kyKw3kyFz3kyGzHgzGTLfzWTohcxQh2kc08uYoQ7TSKYXMUMdprFML2GGOkyjmV7ADHWYxjO9fBnqcM3LTOOZXrsMdaqP5/sgysyXrWv1UXUdsnkMdcjmMdQhm8dQh0x3Qx0y3Q11yHQ31CHT3VCHTHdDHXr9MhXiGtH0CmYqxDWm6TXMVIhrVNOrmKkQ17im1zFTIa6RTa9kpkJsczXXyKYXM1Oh6iP76Y8ZpS8bppa59ot/6C3eRsxg4W7eorN5i93NW3Q3b9HbvMXe5i32N29xsHmLFyv7pjxqyG+nhgR3ashwp4YUd2rIcaeGJHdqyHKnhjR3ashzt4Y8d+tYx2vIc7eGPHfXy/PSdzpWK6sWL31ksKB7g82C7gw2C7ov2CzoKZfNgp5x2SzoCZfNgp5v2Szo6ZbNQlNW8XnUkN+asorPo4YM15RVfB415LimrOLzqCHLNWUVn0cNea4pq/g86ljHa8hzTVnF57Fenpe+OqtaWbV4txaDBd0bbBZ0Z7BZ0H3BZkFPuWwW9IzLZkFPuGwW9HzLZkFPt2wWmhsC+TzoO6r4POibrfg86Puw+DzoW7T4POj7Evk86FsW+Tzouxn5POgbHfk8ashzze2RfB415Lnmpko+jxpWck1ZpfMofUNJtbJq8QoTBgu6rGKzoDuDzYLuCzYLuqxis6DLKjYLuqxis6DLKjYLerpls9CUVXwe9HTL50FPt3wedFnF50GXVXwedFnF50GXVXwedFnF50GXVXweNeS5pqzi86ghzzVlFZ9HDSu5pqzSeZRuBF+trFrsFM9gQZdVbBZ0Z7BZ0H3BZkGXVWwWdFnFZkGXVWwWdFnFZkFPt2wWmrKKz4Oebvk86OmWz4Muq/g86LKKz4Muq/g86LKKz4Muq/g86LKKz6OGPNeUVXweNeS5pqzi86hhJdeUVTqP0v12q5VViw15GSzosorNgu4MNgu6L9gs6LKKzYIuq9gs6LKKzYIuq9gs6OmWzUJTVvF50NMtnwc93fJ50GUVnwddVvF50GUVnwddVvF50GUVnwddVvF51JDnmrKKz6OGPNeUVXweNazkmrJK51G6rWG1smqx7yGDBV1WsVnQncFmQfcFmwVdVrFZ0GUVmwVdVrFZ0GUVmwU93bJZaDdb4/LQ7VbF5aHbyIrLQ7fHFZeHbvsrLg/dnm9cHrrt4Lg8dDvFcXnoNpHj8qghz7Vbz3F51JDn2g3ruDxqWMk1ZdXK43uVHV6XOzqLIxHJ+9UOssXGsY30btwsdoAt3Sp2tS10KrP38Szy00a33RSO022KjvrN7VbbbvYhx3ja7dr3+14mx3EyP34I0sW2yk/XX2Hv6VzgPPFlcjFTuxxXPlFxzF9yfJJeOkvkAkNt1Lxs9w3v+40wwggjjDDCCCOMMMIII4wwwggjjDDCCCOMMMIII4wwwggjjDDCCCOMMMIII4wwwggjjDDCCCOMMMIII4wwwggjjDDCCCOM8N8qPLfjO5kkgS8/eerBWsdu/8XnVdWjsenLR2MvZRLIdPl4rdVcPUA8DePMDoNIlj4im772nG75k7WpXbx6fhqHXhbEUQ5lpZmctq7lKE6kVe3J549yLCP/5QUtPmv02k3RUU8ut9WDzOqHFcpRpsBKpFey9mAss9MoU+2TW4xm0bAgbWyLP0okVoTy6eyr0me51RGMRCObBKmdFr1SzUgdz06y8/Y79YaTxn+BTdVW+OrR8Zx9qTuYxmmgBE/yj6tczepQMq9QJfG9GdIKK4h8qfKh5TQNz14dN+ueOApkqMZbY9mmizwZJ/FsKn3x88/iH8vPH+zBxEuXz7+rBNt+Hp2/Gs0bxPbG4zPlYYcyGmcT8U644v+EdRyGljh8+Y00DIay0XK2r9rft0vz7U9XEieicZNfSvsXcZPbLIfq0ld99s98xjHvIHWoYbzUu7r5bv+Qc3F0dLRovPUUC9Vlt9+YXurquE6k92Odkx8NzzH9vmqv5dUdqWGtBsNypBQbOdgDL02DcST9vtoiIr0qWvL7ek256ujpLJ001u2LvEsPF/25fiaF4WGVq7TVN9d1SbMk/iGr+Sy+u65TPPWGQTavZrX88tpXVVisrNZVWU0kL6eVddLDePJRxyqdX048oiUcUzWTdKvO+tgsVtVK338sqynUsbMjvvz+Vfzn/PcLcXl+8fW3z7+Kj+e//tYXH04vTqsJnOWztnzwVIkmslikcZKJaHabj4OhKLY0SYWXDvPiJYjGFRRXba90nq3MXlNcV59cEpnNkkhMvSSVZ2HsZQ1PTfnbeVc+++y6+KxSY5aXaM9sl5dQJvy42Z1enurPIt2LZG9s+XLkzcJMTJM4n8PkVlNs/bS/3++fnm5teOMZ4AAHOMABDnCAAxzgAAc4wPl74oh0dpv/E1j4Un0ofG+uiBLpgwY0oAENaEADGtCABjSgAQ1o9DT3xa1Z/0NzHc4kcIADHOAABzjAAQ5wgAMc4ABnHZyn9wY66r2BlzPqvYEdp/gL2/Hx7u7BAUhBClKQghSkIAUpSEEKUpCCFKQgfRukbkHqZRRpuyDtdFx3vwdSkIIUpCAFKUhBClKQghSkIAUpSN8GaUeRniUBQeoeFKSOs7fX6YAUpCAFKUhBClKQghSkIAUpSEEK0rdBuqtIv05mFOl+QXqQH933IAUpSEEKUpCCFKQgBSlIQQpSkIL0bZB2Fem/pU+R7hWkJyf9/t4eSEEKUpCCFKQgBSlIQQpSkIIUpCB9G6S94n8mZpIi7RWk/X6vB1KQghSkIAUpSEEKUpCCFKQgBSlI3wrpniL9FFM7C7rdgnR/33W7XZCCFKQgBSlIQQpSkIIUpCAFKUhBWhvpCsVPvPtGqdiDnQVZKC8n3lTamXzIGlsf4lmSlmPM/3zmSXArozSIo1CmhUKJxM6OOPZ94YlCSdwH2USk8a0UfqfkzPRubHvTqYz8hqW8re2SE1aH7WVZ0rAerKbotQ1PmucnudVPSrN5KBd4LS8aTuIkP98K5ciAdqkxiqOsdS+D8SRTGtdx6FfXWPTN5bT1aRZmg36Yj9GBO/gS+/nPb58HzuDs48XAEZfztNURZ2HSyn8fTlon4sOXcHibtaI4yfvl22fx+bT/Xn0tk7eiI75cfhPnw6H67ta2rqff7aTDJJhm/yK/827HD+5eD5Pn0GK5lgj8I2uo0qCft5wXRDIZOM6uJYr2PLL8IJ2G3vwwiMI81roO4+GPXywaMFddXIPI5tP8fNWkOzfenbf4VHumOu68RA1ZcST84HYaSjuS95d344b10yuQTbHbbhc/SnNQ6fpe5uXCV39YoXctQ+vQ8uXIy7taTJN4FITSai4igwfr0LHbTevOC2dy+ftQTVX5Ofns0++fnlqPzUo6LpNOh0lnl0mny6TTY9LZY9LZZ9I5YNJx2lxCXCPa4RrSDteYdrgGtcM1qh2uYe1wjWuHa2A7XCPb5RrZLttczTWyXa6R7RqNbJHObm9fvLu60oqWSN9AhmwjMxmyhcxkyPYxkyHz3kyGzHozGTLnzWTIjDeTIfPdTIZeyAx1mMYxvYwZ6jCNZHoRM9RhGsv0EmaowzSa6QXMUIdpPNPLl6EO17zMNJ7ptctQp/p4vg+izHzZulYfVdchm8dQh2weQx2yeQx1yHQ31CHT3VCHTHdDHTLdDXXIdDfUodcvUyGuEU2vYKZCXGOaXsNMhbhGNb2KmQpxjWt6HTMV4hrZ9EpmKsQ2V3ONbHoxMxWqPrKf/phR+rJhaplrv/iH3uJtxAwW7uYtOpu32N28RXfzFr3NW+xt3mJ/8xYHm7d4sbJvyqOG/HZqSHCnhgx3akhxp4Ycd2pIcqeGLHdqSHOnhjx3a8hzt451vIY8d2vIc3e9PC99p2O1smrx0kcGC7o32CzozmCzoPuCzYKectks6BmXzYKecNks6PmWzYKebtksNGUVn0cN+a0pq/g8ashwTVnF51FDjmvKKj6PGrJcU1bxedSQ55qyis+jjnW8hjzXlFV8Huvleemrs6qVVYt3azFY0L3BZkF3BpsF3RdsFvSUy2ZBz7hsFvSEy2ZBz7dsFvR0y2ahuSGQz4O+o4rPg77Zis+Dvg+Lz4O+RYvPg74vkc+DvmWRz4O+m5HPg77Rkc+jhjzX3B7J51FDnmtuquTzqGEl15RVOo/SN5RUK6sWrzBhsKDLKjYLujPYLOi+YLOgyyo2C7qsYrOgyyo2C7qsYrOgp1s2C01ZxedBT7d8HvR0y+dBl1V8HnRZxedBl1V8HnRZxedBl1V8HnRZxedRQ55ryio+jxryXFNW8XnUsJJryiqdR+lG8NXKqsVO8QwWdFnFZkF3BpsF3RdsFnRZxWZBl1VsFnRZxWZBl1VsFvR0y2ahKav4POjpls+Dnm75POiyis+DLqv4POiyis+DLqv4POiyis+DLqv4PGrIc01ZxedRQ55ryio+jxpWck1ZpfMo3W+3Wlm12JCXwYIuq9gs6M5gs6D7gs2CLqvYLOiyis2CLqvYLOiyis2Cnm7ZLDRlFZ8HPd3yedDTLZ8HXVbxedBlFZ8HXVbxedBlFZ8HXVbxedBlFZ9HDXmuKav4PGrIc01ZxedRw0quKat0HqXbGlYrqxb7HjJY0GUVmwXdGWwWdF+wWdBlFZsFXVaxWdBlFZsFXVaxWdDTLZuFdrM1Lg/dblVcHrqNrLg8dHtccXnotr/i8tDt+cblodsOjstDt1Mcl4duEzkujxryXLv1HJdHDXmu3bCOy6OGlVxTVq08vlfZ4XW5o7M4EpG8X+0gW2wc20jvxs1iB9jSrWJX20KnMnsfzyI/bXTbTeE43aboqN/cbrXtZh9yjKfdrn2/72VyHCfz44cgXWyr/HT9FfaezgXOE18mFzO1y3HlExXH/CXHJ+mls0QuMNRGzct23/C+3wgjjDDCCCOMMMIII4wwwggjjDDCCCOMMMIII4wwwggjjDDCCCOMMMIII4wwwggjjDDCCCOMMMIII4wwwggjjDDCCCOMMMII/63Cczu+k0kS+PKTpx6sdez2X3xeVT0am758NPZSJoFMl4/XWs3VA8TTMM7sMIhk6SOy6WvP6ZY/WZvaxavnp3HoZUEc5VBWmslp61qO4kRa1Z58/ijHMvJfXtDis0av3RQd9eRyWz3IrH5YoRxlCqxEeiVrD8YyO40y1T65xWgWDQvSxrb4o0RiRSifzr4qfZZbHcFINLJJkNpp0SvVjNTx7CQ7b79Tbzhp/BfYVG2Frx4dz9mXuoNpnAZK8CT/uMrVrA4l8wpVEt+bIa2wgsiXKh9aTtPw7NVxs+6Jo0CGarw1lm26yJNxEs+m0hc//yz+sfz8wR5MvHT5/LtKsO3n0fmr0bxBbG88PlMediijcTYR74Qr/k9Yx2FoicOX30jDYCgbLWf7qv19uzTf/nQlcSIaN/mltH8RN7nNcqgufdVn/8xnHPMOUocaxku9q5vv9g85F0dHR4vGW0+xUF12+43ppa6O60R6P9Y5+dHwHNPvq/ZaXt2RGtZqMCxHSrGRgz3w0jQYR9Lvqy0i0quiJb+v15Srjp7O0klj3b7Iu/Rw0Z/rZ1IYHla5Slt9c12XNEviH7Kaz+K76zrFU28YZPNqVssvr31VhcXKal2V1UTyclpZJz2MJx91rNL55cQjWsIxVTNJt+qsj81iVa30/ceymkIdOzviy+9fxX/Of78Ql+cXX3/7/Kv4eP7rb33x4fTitJrAWT5rywdPlWgii0UaJ5mIZrf5OBiKYkuTVHjpMC9egmhcQXHV9krn2crsNcV19cklkdksicTUS1J5FsZe1vDUlL+dd+Wzz66Lzyo1ZnmJ9sx2eQllwo+b3enlqf4s0r1I9saWL0feLMzENInzOUxuNcXWT/v7/f7p6daGN54BDnCAAxzgAAc4wAEOcIADnL8njkhnt/k/gYUv1YfC9+aKKJE+aEADGtCABjSgAQ1oQAMa0IBGT3Nf3Jr1PzTX4UwCBzjAAQ5wgAMc4AAHOMABDnDWwXl6b6Cj3ht4OaPeG9hxir+wHR/v7h4cgBSkIAUpSEEKUpCCFKQgBSlIQQrSt0HqFqReRpG2C9JOx3X3eyAFKUhBClKQghSkIAUpSEEKUpCC9G2QdhTpWRIQpO5BQeo4e3udDkhBClKQghSkIAUpSEEKUpCCFKQgfRuku4r062RGke4XpAf50X0PUpCCFKQgBSlIQQpSkIIUpCAFKUjfBmlXkf5b+hTpXkF6ctLv7+2BFKQgBSlIQQpSkIIUpCAFKUhBCtK3Qdor/mdiJinSXkHa7/d6IAUpSEEKUpCCFKQgBSlIQQpSkIL0rZDuKdJPMbWzoNstSPf3XbfbBSlIQQpSkIIUpCAFKUhBClKQghSktZGuUPzEu2+Uij3YWZCF8nLiTaWdyYessfUhniVpOcb8z2eeBLcySoM4CmVaKJRI7OyIY98XniiUxH2QTUQa30rhd0rOTO/GtjedyshvWMrb2i45YXXYXpYlDevBaope2/CkeX6SW/2kNJuHcoHX8qLhJE7y861QjgxolxqjOMpa9zIYTzKlcR2HfnWNRd9cTlufZmE26If5GB24gy+xP+gMvn0eOIOzjxcDR1zO01ZHnIVJK/99OGmdiA9fwuFt1oriJO+Xb5/F59P+e/W1TN6Kjvhy+U2cD4fqu1vbup5+t5MOk2Ca/Yv8zrsdP7h7PUyeQ4vlWiLwj6yhSoN+3nJeEMlk4DhdSxTteWT5QToNvflhEIV5rHUdxsMfv1g0YK66uAaRzaf5+apJd268O2/xqfZMddx5iRqy4kj4we00lHYk7y/vxg3rp1cgm2K33S5+lOag0vW9zMuFr/6wQu9ahtah5cuRl3e1mCbxKAil1VxEBg/WoWO3m9adF87k8vehmqryc/LZp98/PbUem5V0XCadDpPOLpNOl0mnx6Szx6Szz6RzwKTjtLmEuEa0wzWkHa4x7XANaodrVDtcw9rhGtcO18B2uEa2yzWyXba5mmtku1wj2zUa2SKd3d6+eHd1pRUtkb6BDNlGZjJkC5nJkO1jJkPmvZkMmfVmMmTOm8mQGW8mQ+a7mQy9kBnqMI1jehkz1GEayfQiZqjDNJbpJcxQh2k00wuYoQ7TeKaXL0MdrnmZaTzTa5ehTvXxfB9Emfmyda0+qq5DNo+hDtk8hjpk8xjqkOluqEOmu6EOme6GOmS6G+qQ6W6oQ69fpkJcI5pewUyFuMY0vYaZCnGNanoVMxXiGtf0OmYqxDWy6ZXMVIhtruYa2fRiZipUfWQ//TGj9GXD1DLXfvEPvcXbiBks3M1bdDZvsbt5i+7mLXqbt9jbvMX+5i0ONm/xYmXflEcN+e3UkOBODRnu1JDiTg057tSQ5E4NWe7UkOZODXnu1pDnbh3reA157taQ5+56eV76TsdqZdXipY8MFnRvsFnQncFmQfcFmwU95bJZ0DMumwU94bJZ0PMtmwU93bJZaMoqPo8a8ltTVvF51JDhmrKKz6OGHNeUVXweNWS5pqzi86ghzzVlFZ9HHet4DXmuKav4PNbL89JXZ1Urqxbv1mKwoHuDzYLuDDYLui/YLOgpl82CnnHZLOgJl82Cnm/ZLOh7o9gsNDcE8nnQd1TxedA3W/F50Pdh8XnQt2jxedD3JfJ50Lcs8nnQdzPyedA3OvJ51JDnmrKKz6OOdbyGhVxTVvF5rLeUl76hpFpZtXiFCYMF3RtsFnRnsFnQfcFmQZdVbBZ0WcVmQZdVbBZ0WcVmQU+3bBaasorPgy6r+DzosorPgy6r+DzosorPgy6r+DzosorPgy6r+DzosorPo4Y815RVfB51rOM1LOSasorPY72lvHQj+Gpl1WKneAYLujfYLOjOYLOg+4LNgi6r2CzosorNgi6r2CzosorNgp5u2Sw0ZRWfB11W8XnQZRWfB11W8XnQZRWfB11W8XnQZRWfB11W8XnQZRWfRw15rimr+DzqWMdrWMg1ZRWfx3pLeel+u9XKqsWGvAwWdG+wWdCdwWZB9wWbBV1WsVnQZRWbBV1WsVnQZRWbBT3dslloyio+D7qs4vOgyyo+D7qs4vOgyyo+D7qs4vOgyyo+D7qs4vOgyyo+jxryXFNW8XnUsY7XsJBryio+j/WW8tJtDauVVYt9Dxks6N5gs6A7g82C7gs2C7qsYrOgyyo2C7qsYrOgyyo2C92+U0wW2s3WuDx0u1Vxeeg2suLy0O1xxeWh2/6Ky0O35xuXh247OC4P3U5xXB66TeS4PGrIc01ZxedRxzpew0KuKav4PMqX8u9Vdnhd7ugsjkQk71c7yBYbxzbSu3Gz2AG2dKvY1bbQqczex7PITxvddlM4TrcpOuo3t1ttu9mHHONpt2vf73uZHMfJ/PghSBfbKj9df4W9p3OB88SXycVM7XJc+UTFMX/J8Ul66SyRCwy1UfOy3Te87zfCCCOMMMIII4wwwggjjDDCCCOMMMIII4wwwggjjDDCCCOMMMIII4wwwggjjDDCCCOMMMIII4wwwggjjDDCCCOMMMIII4wwwn+r8NyO72SSBL785KkHax27/RefV1WPxqYvH429lEkg0+XjtVZz9QDxNIwzOwwiWfqIbPrac7rlT9amdvHq+WkcelkQRzmUlWZy2rqWoziRVrUnnz/KsYz8lxe0+KzRazdFRz253FYPMqsfVihHmQIrkV7J2oOxzE6jTLVPbjGaRcOCtLEt/iiRWBHKp7OvSp/lVkcwEo1sEqR2WvRKNSN1PDvJztvv1BtOGv8FNlVb4atHx3P2pe5gGqeBEjzJP65yNatDybxClcT3ZkgrrCDypcqHltM0PHt13Kx74iiQoRpvjWWbLvJknMSzqfTFzz+Lfyw/f7AHEy9dPv+uEmz7eXT+ajRvENsbj8+Uhx3KaJxNxDvhiv8T1nEYWuLw5TfSMBjKRsvZvmp/3y7Ntz9dSZyIxk1+Ke1fxE1usxyqS1/12T/zGce8g9ShhvFS7+rmu/1DzsXR0dGi8dZTLFSX3X5jeqmr4zqR3o91Tn40PMf0+6q9lld3pIa1GgzLkVJs5GAPvDQNxpH0+2qLiPSqaMnv6zXlqqOns3TSWLcv8i49XPTn+pkUhodVrtJW31zXJc2S+Ies5rP47rpO8dQbBtm8mtXyy2tfVWGxslpXZTWRvJxW1kkP48lHHat0fjnxiJZwTNVM0q0662OzWFUrff+xrKZQx86O+PL7V/Gf898vxOX5xdffPv8qPp7/+ltffDi9OK0mcJbP2vLBUyWayGKRxkkmotltPg6GotjSJBVeOsyLlyAaV1Bctb3SebYye01xXX1ySWQ2SyIx9ZJUnoWxlzU8NeVv51357LPr4rNKjVleoj2zXV5CmfDjZnd6eao/i3Qvkr2x5cuRNwszMU3ifA6TW02x9dP+fr9/erq14Y1ngAMc4AAHOMABDnCAAxzgAOfviSPS2W3+T2DhS/Wh8L25IkqkDxrQgAY0oAENaEADGtCABjSg0dPcF7dm/Q/NdTiTwAEOcIADHOAABzjAAQ5wgAOcdXCe3hvoqPcGXs6o9wZ2nOIvbMfHu7sHByAFKUhBClKQghSkIAUpSEEKUpCC9G2QugWpl1Gk7YK003Hd/R5IQQpSkIIUpCAFKUhBClKQghSkIH0bpB1FepYEBKl7UJA6zt5epwNSkIIUpCAFKUhBClKQghSkIAUpSN8G6a4i/TqZUaT7BelBfnTfgxSkIAUpSEEKUpCCFKQgBSlIQQrSt0HaVaT/lj5FuleQnpz0+3t7IAUpSEEKUpCCFKQgBSlIQQpSkIL0bZD2iv+ZmEmKtFeQ9vu9HkhBClKQghSkIAUpSEEKUpCCFKQgfSuke4r0U0ztLOh2C9L9fdftdkEKUpCCFKQgBSlIQQpSkIIUpCAFaW2kKxQ/8e4bpWIPdhZkobyceFNpZ/Iha2x9iGdJWo4x//OZJ8GtjNIgjkKZFgolEjs74tj3hScKJXEfZBORxrdS+J2SM9O7se1NpzLyG5bytrZLTlgdtpdlScN6sJqi1zY8aZ6f5FY/Kc3moVzgtbxoOImT/HwrlCMD2qXGKI6y1r0MxpNMaVzHoV9dY9E3l9PW+WgUDGU6+PZ54AzOPl4MHHE5T1sdcRYmrfz34aR1LD58CYe3WUt6aSa+fRafT/vv1bcyeSs64svlN3E+HKqvbm3revfdTjpMgmn2L/I773b84O71MHkOLZZricA/soZq6Pfz1vKCSCYDx+lZomjDI8sP0mnozQ+DKMxjreswHv74xaIBc9XFNYhsPs3PV824c+PdeYtPtWeq485L1DAVR8IPbqehtCN5f3k3blg/vQLZFLvtdvGjNO+Uru9lXi589YcVetcytA4tX468WZiJaRKPglBazUVk8GAdOna7ad154Uxah70D++DZsX/QtIZqssoV8vmn3z89tR6blVTdjah2NqK6uxHV7kZUextR3duI6v5GVA82ouq0NyO7mexyNpNezmbyy9lMgjmbyTBnMynmbCbHnM0kmbOZLHM3k2XuhtawzWSZu5ksc/9Clol0dnv74v3fa1QIifQNRCu2rZloxZY1E63YrmaiFecuM9GKM5eZaMV5y0y04qxlJlpxzjITrVoYGKpuJKeqlgWGqhvJqqpFgaHqRvKqaklgqLqRzKpaEBiqbiS3qpYDhqqbWa82kltVawFD1XVz6z6Isr9aBlyrL1RXrdishqoVm9VQtWKzGqpWnLIMVStOWYaqFacsQ9WKU5ahasUpy1C1aj1gKruZ7KpaEZjKbia/qtYEprKbybCqVYGp7GZyrGpdYCq7mSyrWhmYym5oDdtMllUtDkxljbLse5U/OCz/qCiORCTvV3/QKP6O0Ujvxv/fzhn+NG6DYfz7/gqPD6dUa3NNGcfGxiZ2196ddDcmjtM0IYTSxm0DaVLZyUY18b/Pb+p0LZA1ia2Dao8/0JI3efyz89qOcHja+YbE1p2LYmdS8vSXJIsD6Rx028zzDtpsn771DqrtftwqjNWGaxC89lM+ScTi5DaUy529VVdU2P5UAqci4OIso422yhcSx2KT4yP3ZSb4EoP2CvUtMN3QzTeSNqv6xEXIpcZVNekbMo+S1KXdra1VysfavZ1UunnezZPIT8MkVlB7MuXzzpCPE8H3qmXSBz7hcbDZoOUx55XKgn3KBNoM8+iH3i/dupVcyLpXE57245T6R1UxzuJRTuq02N8VNkyJkK+uvtg6NqiEY+ak01CqvKbrqlVEZe0iV/Vf3x9NnX+B66oV+HpvUOtezRMZkuAbdbhKa4pCMo9QieSvekgFVhgHnAZux2vXvLoo100vHIc8onxzdJ8ux8lEJNmcB+zFC/a1Pn7rXk19qecTGmCt9eji0ajqENefTAZUhxvxeJJO2Y+sx35meydRtMeONs+QUTjiTsdrXXQvW1vH24OWJII516op3R/YtapGp6qul459c8y8+jeICqWx1ru4vnRvuJrejo+XnddMMVfVt/26blOLMhTcv2ly8V3Na+qeT/2lW3dMaU3JoDMlXxjdq+XLQDzIXweSF3lPXjbryuJGzzM5dZreC3VLj5b3s/lIiqKjKq106cymtchUJDe8Wj3Lc5vWlMz9UZguqlWlT27cqryKoqqmKsVEsjmtNBketScfKsVw3px4WId5ddXqDLfqrHftfFWtdP7dtmcKKi9fst8+n7M/Tj+fsU+nZ+fvf33LPpy+ff+aveuf9asJDNSszW99ekRjacJkoh6k42ym8mDE8kdEyXw5Ug8vYTypoFj0Pemsrcx+mw2rTy6Cp5mI2dwXkg+ixE8dn6b8lrqVa8eG+bFKnbn9EW2tWt2EbcJ3T/DS5r0NWP1mJm2oPsk7pMABDnCAAxzgAAc4wAEOcICz8zgPX3AhIsED0IAGNKABDWhAAxrQgAY0oAHNf9M8eCWQaOgVP+AABzjAAQ5wgAMc4AAHOMABzhNaJZ7z2ZwLP80EZ86gBbPEZ2WW+LtPGfeO5x8ns2HI45TRLSPnQx5kqv877LA72BETxMNdMEE8/GImiPm/njY1YbKks29J51tLOgeWdF5Z0jm0pPOdJZ3vLelsuAsYCdnKaM9WSnu2ctqzldSeraz2bKW1ZyuvPVuJ7dnK7J6tzO5Zm6ttZXbPVmb3amV2ddO+DanmNn0GMqU91NyKz0CmdNw3t9szkCkd880t9QxkSse7gW2eiY6lPC5fxgzM8Ex0LKVy+RpmYHFnomMpm8sXMAPjOpN50FI+l69eBnZ0JjqW8rl86WpuMrchY2ArZ6JT2j0G1nEmOqXD3cAezkSndLgbWMCZ6JQOdxObNyMhWxldvoKZmLcZCdlK6vJFzMSSzUjIVl6Xr2MmRmtGM6OtzC5fykzs04yEbGV2+WoGU7SdMEVDGGGEEUYYYYQRRhhhhBFGGGGEEUb4OYUXbvInFyIM+Eef/lDluV2Y4q+1BKb4qwJT/FoFpvgwxa9RYIp/v8AU/36BKX7NAlN8mOI/WmCKDxzgAAc4wAEOcIADHOAABzjA2QVLSdCABjSgAQ1oQAMa0IAGNKDZHZr/jZUlcIADHOAABzjAAQ5wgAMc4DSv7wlM8d+EMx7LMIkjLiUs8Z+XJX4iblh/PA5HIY9Hi5UR/pe1wNdn34us/158X36u1PWX1ccwCRb0OU1n0U9f/QMvOd+M"
               },
               {
                  "name" : "annual_peak_electric_demand",
                  "units" : "kW",
                  "value" : 997.16627000000005
               },
               {
                  "name" : "first_year_capital_cost",
                  "units" : "$",
                  "value" : 0
               },
               {
                  "name" : "annual_utility_cost",
                  "units" : "$",
                  "value" : 0
               },
               {
                  "name" : "total_lifecycle_cost",
                  "units" : "$",
                  "value" : 0
               }
            ],
            "step_warnings" : [ "A table in Annual Overview section returned false and was skipped." ]
         }
      }
   ],
   "updated_at" : "20170710T192856Z",
   "weather_file" : "USA_CO_Denver.Intl.AP.725650_TMY3.epw"
}
