{
   "completed_at" : "20170710T192248Z",
   "completed_status" : "Success",
   "created_at" : "2017-07-10 19:20:54 +0000",
   "current_step" : 5,
   "description" : "",
   "eplusout_err" : "Program Version,EnergyPlus, Version 8.7.0-78a111df4a, YMD=2017.07.10 19:22,IDD_Version 8.7.0\n   ************* IDF Context for following error/warning message:\n   ************* Note -- lines truncated at 300 characters, if necessary...\n   *************      5 Building,\n   ************* indicated Name=NECB 2011-SmallOffice-NECB HDD Method-CAN_PQ_Sherbrooke.716100_CWEC.epw created: 2017-07-10 19:21:00 +0000\n   ************* Only last 1 lines before error line shown.....\n   *************      6   NECB 2011-SmallOffice-NECB HDD Method-CAN_PQ_Sherbrooke.716100_CWEC.epw created: 2017-07-10 19:21:00 +0000, !- Name\n   ** Warning ** IP: IDF line~6 Alpha Argument length exceeds maximum, will be truncated=  NECB 2011-SmallOffice-NECB HDD Method-CAN_PQ_Sherbrooke.716100_CWEC.epw created: 2017-07-10 19:21:00 +000\n   **   ~~~   ** Will be processed as Alpha=NECB 2011-SMALLOFFICE-NECB HDD METHOD-CAN_PQ_SHERBROOKE.716100_CWEC.EPW CREATED: 2017-07-10 19:21:00 +0000\n   ************* Beginning Zone Sizing Calculations\n   ** Warning ** ProcessScheduleInput: Schedule:Day:Interval=\"ECONOMIZER MAX OA FRACTION 100 PCT DEFAULT\", Blank Schedule Type Limits Name input -- will not be validated.\n   ** Warning ** ProcessScheduleInput: Schedule:Day:Interval=\"SCHEDULE DAY 1\", Blank Schedule Type Limits Name input -- will not be validated.\n   ** Warning ** ProcessScheduleInput: Schedule:Day:Interval=\"SCHEDULE DAY 10\", Blank Schedule Type Limits Name input -- will not be validated.\n   ** Warning ** ProcessScheduleInput: Schedule:Day:Interval=\"SCHEDULE DAY 11\", Blank Schedule Type Limits Name input -- will not be validated.\n   ** Warning ** ProcessScheduleInput: Schedule:Day:Interval=\"SCHEDULE DAY 12\", Blank Schedule Type Limits Name input -- will not be validated.\n   ** Warning ** ProcessScheduleInput: Schedule:Day:Interval=\"SCHEDULE DAY 13\", Blank Schedule Type Limits Name input -- will not be validated.\n   ** Warning ** ProcessScheduleInput: Schedule:Day:Interval=\"SCHEDULE DAY 14\", Blank Schedule Type Limits Name input -- will not be validated.\n   ** Warning ** ProcessScheduleInput: Schedule:Day:Interval=\"SCHEDULE DAY 15\", Blank Schedule Type Limits Name input -- will not be validated.\n   ** Warning ** ProcessScheduleInput: Schedule:Day:Interval=\"SCHEDULE DAY 16\", Blank Schedule Type Limits Name input -- will not be validated.\n   ** Warning ** ProcessScheduleInput: Schedule:Day:Interval=\"SCHEDULE DAY 17\", Blank Schedule Type Limits Name input -- will not be validated.\n   ** Warning ** ProcessScheduleInput: Schedule:Day:Interval=\"SCHEDULE DAY 18\", Blank Schedule Type Limits Name input -- will not be validated.\n   ** Warning ** ProcessScheduleInput: Schedule:Day:Interval=\"SCHEDULE DAY 19\", Blank Schedule Type Limits Name input -- will not be validated.\n   ** Warning ** ProcessScheduleInput: Schedule:Day:Interval=\"SCHEDULE DAY 2\", Blank Schedule Type Limits Name input -- will not be validated.\n   ** Warning ** ProcessScheduleInput: Schedule:Day:Interval=\"SCHEDULE DAY 5\", Blank Schedule Type Limits Name input -- will not be validated.\n   ** Warning ** ProcessScheduleInput: Schedule:Day:Interval=\"SCHEDULE DAY 6\", Blank Schedule Type Limits Name input -- will not be validated.\n   ** Warning ** ProcessScheduleInput: Schedule:Day:Interval=\"SCHEDULE DAY 7\", Blank Schedule Type Limits Name input -- will not be validated.\n   ** Warning ** ProcessScheduleInput: Schedule:Day:Interval=\"SCHEDULE DAY 8\", Blank Schedule Type Limits Name input -- will not be validated.\n   ** Warning ** ProcessScheduleInput: Schedule:Day:Interval=\"SCHEDULE DAY 9\", Blank Schedule Type Limits Name input -- will not be validated.\n   ** Warning ** ProcessScheduleInput: Schedule:Year=\"ECONOMIZER MAX OA FRACTION 100 PCT\", Blank Schedule Type Limits Name input -- will not be validated.\n   ** Warning ** ProcessScheduleInput: Schedule:Year=\"SCHEDULE RULESET 10\", Blank Schedule Type Limits Name input -- will not be validated.\n   ** Warning ** ProcessScheduleInput: Schedule:Year=\"SCHEDULE RULESET 11\", Blank Schedule Type Limits Name input -- will not be validated.\n   ** Warning ** ProcessScheduleInput: Schedule:Year=\"SCHEDULE RULESET 12\", Blank Schedule Type Limits Name input -- will not be validated.\n   ** Warning ** ProcessScheduleInput: Schedule:Year=\"SCHEDULE RULESET 13\", Blank Schedule Type Limits Name input -- will not be validated.\n   ** Warning ** ProcessScheduleInput: Schedule:Year=\"SCHEDULE RULESET 14\", Blank Schedule Type Limits Name input -- will not be validated.\n   ** Warning ** ProcessScheduleInput: Schedule:Year=\"SCHEDULE RULESET 15\", Blank Schedule Type Limits Name input -- will not be validated.\n   ** Warning ** ProcessScheduleInput: Schedule:Year=\"SCHEDULE RULESET 16\", Blank Schedule Type Limits Name input -- will not be validated.\n   ** Warning ** ProcessScheduleInput: Schedule:Year=\"SCHEDULE RULESET 17\", Blank Schedule Type Limits Name input -- will not be validated.\n   ** Warning ** ProcessScheduleInput: Schedule:Year=\"SCHEDULE RULESET 3\", Blank Schedule Type Limits Name input -- will not be validated.\n   ** Warning ** ProcessScheduleInput: Schedule:Year=\"SCHEDULE RULESET 4\", Blank Schedule Type Limits Name input -- will not be validated.\n   ** Warning ** ProcessScheduleInput: Schedule:Year=\"SCHEDULE RULESET 5\", Blank Schedule Type Limits Name input -- will not be validated.\n   ** Warning ** ProcessScheduleInput: Schedule:Year=\"SCHEDULE RULESET 6\", Blank Schedule Type Limits Name input -- will not be validated.\n   ** Warning ** ProcessScheduleInput: Schedule:Year=\"SCHEDULE RULESET 7\", Blank Schedule Type Limits Name input -- will not be validated.\n   ** Warning ** ProcessScheduleInput: Schedule:Year=\"SCHEDULE RULESET 8\", Blank Schedule Type Limits Name input -- will not be validated.\n   ** Warning ** ProcessScheduleInput: Schedule:Year=\"SCHEDULE RULESET 9\", Blank Schedule Type Limits Name input -- will not be validated.\n   ** Warning ** ProcessScheduleInput: Schedule:Constant=\"ALWAYS OFF DISCRETE\", Blank Schedule Type Limits Name input -- will not be validated.\n   ** Warning ** ProcessScheduleInput: Schedule:Constant=\"ALWAYS ON CONTINUOUS\", Blank Schedule Type Limits Name input -- will not be validated.\n   ** Warning ** CheckUsedConstructions: There are 22 nominally unused constructions in input.\n   **   ~~~   ** For explicit details on each unused construction, use Output:Diagnostics,DisplayExtraWarnings;\n   ************* Beginning System Sizing Calculations\n   ************* Beginning Plant Sizing Calculations\n   ** Warning ** GetDXCoils: Coil:Cooling:DX:SingleSpeed=\"COIL COOLING DX SINGLE SPEED 5 16KBTU/HR 14.0SEER\", invalid\n   **   ~~~   ** ...Part Load Fraction Correlation Curve Name = DXCOOL-NECB2011-REF-COOLPLFFPLR 4 has out of range value.\n   **   ~~~   ** ...Curve maximum must be <= 1.0, curve max at PLR = 0.99 is 1.015\n   **   ~~~   ** ...Setting curve maximum to 1.0 and simulation continues.\n   ** Warning ** GetDXCoils: Coil:Cooling:DX:SingleSpeed=\"COIL COOLING DX SINGLE SPEED 4 16KBTU/HR 14.0SEER\", invalid\n   **   ~~~   ** ...Part Load Fraction Correlation Curve Name = DXCOOL-NECB2011-REF-COOLPLFFPLR 3 has out of range value.\n   **   ~~~   ** ...Curve maximum must be <= 1.0, curve max at PLR = 0.99 is 1.015\n   **   ~~~   ** ...Setting curve maximum to 1.0 and simulation continues.\n   ** Warning ** GetDXCoils: Coil:Cooling:DX:SingleSpeed=\"COIL COOLING DX SINGLE SPEED 2 15KBTU/HR 14.0SEER\", invalid\n   **   ~~~   ** ...Part Load Fraction Correlation Curve Name = DXCOOL-NECB2011-REF-COOLPLFFPLR 1 has out of range value.\n   **   ~~~   ** ...Curve maximum must be <= 1.0, curve max at PLR = 0.99 is 1.015\n   **   ~~~   ** ...Setting curve maximum to 1.0 and simulation continues.\n   ** Warning ** GetDXCoils: Coil:Cooling:DX:SingleSpeed=\"COIL COOLING DX SINGLE SPEED 1 15KBTU/HR 14.0SEER\", invalid\n   **   ~~~   ** ...Part Load Fraction Correlation Curve Name = DXCOOL-NECB2011-REF-COOLPLFFPLR has out of range value.\n   **   ~~~   ** ...Curve maximum must be <= 1.0, curve max at PLR = 0.99 is 1.015\n   **   ~~~   ** ...Setting curve maximum to 1.0 and simulation continues.\n   ** Warning ** GetDXCoils: Coil:Cooling:DX:SingleSpeed=\"COIL COOLING DX SINGLE SPEED 3 18KBTU/HR 14.0SEER\", invalid\n   **   ~~~   ** ...Part Load Fraction Correlation Curve Name = DXCOOL-NECB2011-REF-COOLPLFFPLR 2 has out of range value.\n   **   ~~~   ** ...Curve maximum must be <= 1.0, curve max at PLR = 0.99 is 1.015\n   **   ~~~   ** ...Setting curve maximum to 1.0 and simulation continues.\n   ** Warning ** The Standard Ratings is calculated for Coil:Cooling:DX:SingleSpeed = COIL COOLING DX SINGLE SPEED 5 16KBTU/HR 14.0SEER but not at the AHRI test condition due to curve out of bound.\n   **   ~~~   **  Review the Standard Ratings calculations in the Engineering Reference for this coil type. Also, use Output:Diagnostics, DisplayExtraWarnings for further guidance.\n   ** Warning ** The Standard Ratings is calculated for Coil:Cooling:DX:SingleSpeed = COIL COOLING DX SINGLE SPEED 4 16KBTU/HR 14.0SEER but not at the AHRI test condition due to curve out of bound.\n   **   ~~~   **  Review the Standard Ratings calculations in the Engineering Reference for this coil type. Also, use Output:Diagnostics, DisplayExtraWarnings for further guidance.\n   ** Warning ** The Standard Ratings is calculated for Coil:Cooling:DX:SingleSpeed = COIL COOLING DX SINGLE SPEED 2 15KBTU/HR 14.0SEER but not at the AHRI test condition due to curve out of bound.\n   **   ~~~   **  Review the Standard Ratings calculations in the Engineering Reference for this coil type. Also, use Output:Diagnostics, DisplayExtraWarnings for further guidance.\n   ** Warning ** The Standard Ratings is calculated for Coil:Cooling:DX:SingleSpeed = COIL COOLING DX SINGLE SPEED 1 15KBTU/HR 14.0SEER but not at the AHRI test condition due to curve out of bound.\n   **   ~~~   **  Review the Standard Ratings calculations in the Engineering Reference for this coil type. Also, use Output:Diagnostics, DisplayExtraWarnings for further guidance.\n   ** Warning ** The Standard Ratings is calculated for Coil:Cooling:DX:SingleSpeed = COIL COOLING DX SINGLE SPEED 3 18KBTU/HR 14.0SEER but not at the AHRI test condition due to curve out of bound.\n   **   ~~~   **  Review the Standard Ratings calculations in the Engineering Reference for this coil type. Also, use Output:Diagnostics, DisplayExtraWarnings for further guidance.\n   ** Warning ** Check input. Pump nominal power or motor efficiency is set to 0, for pump=SERVICE WATER LOOP PUMP\n   ** Warning ** Output:Meter: invalid Name=\"GAS:FACILITY\" - not found.\n   ** Warning ** Output:Meter: invalid Name=\"DISTRICTCOOLING:FACILITY\" - not found.\n   ** Warning ** Output:Meter: invalid Name=\"DISTRICTHEATING:FACILITY\" - not found.\n   ** Warning ** Output:Meter:MeterFileOnly: invalid Name=\"GAS:FACILITY\" - not found.\n   ** Warning ** Output:Meter:MeterFileOnly: invalid Name=\"GAS:FACILITY\" - not found.\n   ** Warning ** Output:Meter:MeterFileOnly requested for \"Electricity:Facility\" (TimeStep), already on \"Output:Meter\". Will report to both eplusout.eso and eplusout.mtr\n   ************* Testing Individual Branch Integrity\n   ************* All Branches passed integrity testing\n   ************* Testing Individual Supply Air Path Integrity\n   ************* All Supply Air Paths passed integrity testing\n   ************* Testing Individual Return Air Path Integrity\n   ************* All Return Air Paths passed integrity testing\n   ************* No node connection errors were found.\n   ************* Beginning Simulation\n   ** Warning ** GetInputEconomicsTariff: UtilityCost:Tariff=\"GASMETRO\" missing meter\n   **   ~~~   ** Meter referenced is not present due to a lack of equipment that uses that energy source/meter:\"GAS:FACILITY\".\n   ** Warning ** CalcDoe2DXCoil: Coil:Cooling:DX:SingleSpeed \"COIL COOLING DX SINGLE SPEED 4 16KBTU/HR 14.0SEER\" - Air-cooled condenser inlet dry-bulb temperature below 0 C. Outdoor dry-bulb temperature = -8.58\n   **   ~~~   **  ... Occurrence info = RUN PERIOD 1, 01/02 06:03 - 06:05\n   **   ~~~   ** ... Operation at low ambient temperatures may require special performance curves.\n   ** Warning ** CalcDoe2DXCoil: Coil:Cooling:DX:SingleSpeed \"COIL COOLING DX SINGLE SPEED 4 16KBTU/HR 14.0SEER\" - Full load outlet air dry-bulb temperature < 2C. This indicates the possibility of coil frost/freeze. Outlet temperature = 0.58 C.\n   **   ~~~   **  ...Occurrence info = RUN PERIOD 1, 01/02 06:03 - 06:05\n   **   ~~~   ** ... Possible reasons for low outlet air dry-bulb temperatures are: This DX coil\n   **   ~~~   **    1) may have a low inlet air dry-bulb temperature. Inlet air temperature = 14.851 C.\n   **   ~~~   **    2) may have a low air flow rate per watt of cooling capacity. Check inputs.\n   **   ~~~   **    3) is used as part of a HX assisted cooling coil which uses a high sensible effectiveness. Check inputs.\n   ** Warning ** CalcDoe2DXCoil: Coil:Cooling:DX:SingleSpeed \"COIL COOLING DX SINGLE SPEED 2 15KBTU/HR 14.0SEER\" - Air-cooled condenser inlet dry-bulb temperature below 0 C. Outdoor dry-bulb temperature = -8.58\n   **   ~~~   **  ... Occurrence info = RUN PERIOD 1, 01/02 06:03 - 06:05\n   **   ~~~   ** ... Operation at low ambient temperatures may require special performance curves.\n   ** Warning ** CalcDoe2DXCoil: Coil:Cooling:DX:SingleSpeed \"COIL COOLING DX SINGLE SPEED 1 15KBTU/HR 14.0SEER\" - Air-cooled condenser inlet dry-bulb temperature below 0 C. Outdoor dry-bulb temperature = -8.58\n   **   ~~~   **  ... Occurrence info = RUN PERIOD 1, 01/02 06:03 - 06:05\n   **   ~~~   ** ... Operation at low ambient temperatures may require special performance curves.\n   ** Warning ** CalcDoe2DXCoil: Coil:Cooling:DX:SingleSpeed \"COIL COOLING DX SINGLE SPEED 1 15KBTU/HR 14.0SEER\" - Full load outlet air dry-bulb temperature < 2C. This indicates the possibility of coil frost/freeze. Outlet temperature = -0.34 C.\n   **   ~~~   **  ...Occurrence info = RUN PERIOD 1, 01/02 06:03 - 06:05\n   **   ~~~   ** ... Possible reasons for low outlet air dry-bulb temperatures are: This DX coil\n   **   ~~~   **    1) may have a low inlet air dry-bulb temperature. Inlet air temperature = 14.258 C.\n   **   ~~~   **    2) may have a low air flow rate per watt of cooling capacity. Check inputs.\n   **   ~~~   **    3) is used as part of a HX assisted cooling coil which uses a high sensible effectiveness. Check inputs.\n   ** Warning ** CalcDoe2DXCoil: Coil:Cooling:DX:SingleSpeed \"COIL COOLING DX SINGLE SPEED 3 18KBTU/HR 14.0SEER\" - Air-cooled condenser inlet dry-bulb temperature below 0 C. Outdoor dry-bulb temperature = -8.58\n   **   ~~~   **  ... Occurrence info = RUN PERIOD 1, 01/02 06:03 - 06:05\n   **   ~~~   ** ... Operation at low ambient temperatures may require special performance curves.\n   ** Warning ** CalcDoe2DXCoil: Coil:Cooling:DX:SingleSpeed \"COIL COOLING DX SINGLE SPEED 5 16KBTU/HR 14.0SEER\" - Air-cooled condenser inlet dry-bulb temperature below 0 C. Outdoor dry-bulb temperature = -5.70\n   **   ~~~   **  ... Occurrence info = RUN PERIOD 1, 01/02 21:15 - 21:18\n   **   ~~~   ** ... Operation at low ambient temperatures may require special performance curves.\n   ** Warning ** CalcDoe2DXCoil: Coil:Cooling:DX:SingleSpeed \"COIL COOLING DX SINGLE SPEED 5 16KBTU/HR 14.0SEER\" - Full load outlet air dry-bulb temperature < 2C. This indicates the possibility of coil frost/freeze. Outlet temperature = -0.31 C.\n   **   ~~~   **  ...Occurrence info = RUN PERIOD 1, 01/02 21:15 - 21:18\n   **   ~~~   ** ... Possible reasons for low outlet air dry-bulb temperatures are: This DX coil\n   **   ~~~   **    1) may have a low inlet air dry-bulb temperature. Inlet air temperature = 14.211 C.\n   **   ~~~   **    2) may have a low air flow rate per watt of cooling capacity. Check inputs.\n   **   ~~~   **    3) is used as part of a HX assisted cooling coil which uses a high sensible effectiveness. Check inputs.\n   ** Warning ** CalcDoe2DXCoil: Coil:Cooling:DX:SingleSpeed \"COIL COOLING DX SINGLE SPEED 2 15KBTU/HR 14.0SEER\" - Full load outlet air dry-bulb temperature < 2C. This indicates the possibility of coil frost/freeze. Outlet temperature = 1.44 C.\n   **   ~~~   **  ...Occurrence info = RUN PERIOD 1, 01/04 21:30 - 21:35\n   **   ~~~   ** ... Possible reasons for low outlet air dry-bulb temperatures are: This DX coil\n   **   ~~~   **    1) may have a low inlet air dry-bulb temperature. Inlet air temperature = 14.409 C.\n   **   ~~~   **    2) may have a low air flow rate per watt of cooling capacity. Check inputs.\n   **   ~~~   **    3) is used as part of a HX assisted cooling coil which uses a high sensible effectiveness. Check inputs.\n   ** Warning ** CalcDoe2DXCoil: Coil:Cooling:DX:SingleSpeed \"COIL COOLING DX SINGLE SPEED 3 18KBTU/HR 14.0SEER\" - Full load outlet air dry-bulb temperature < 2C. This indicates the possibility of coil frost/freeze. Outlet temperature = 1.84 C.\n   **   ~~~   **  ...Occurrence info = RUN PERIOD 1, 01/24 21:30 - 21:35\n   **   ~~~   ** ... Possible reasons for low outlet air dry-bulb temperatures are: This DX coil\n   **   ~~~   **    1) may have a low inlet air dry-bulb temperature. Inlet air temperature = 14.864 C.\n   **   ~~~   **    2) may have a low air flow rate per watt of cooling capacity. Check inputs.\n   **   ~~~   **    3) is used as part of a HX assisted cooling coil which uses a high sensible effectiveness. Check inputs.\n   ************* Simulation Error Summary *************\n   ************* There are 9 unused schedules in input.\n   ************* There are 9 unused week schedules in input.\n   ************* There are 12 unused day schedules in input.\n   ************* Use Output:Diagnostics,DisplayUnusedSchedules; to see them.\n   *************\n   ************* ===== Recurring Error Summary =====\n   ************* The following recurring error messages occurred.\n   *************\n   *************  ** Warning ** Plant loop exceeding upper temperature limit, PlantLoop=\"MAIN SERVICE WATER LOOP\"\n   *************  **   ~~~   **   This error occurred 42732 total times;\n   *************  **   ~~~   **   during Warmup 1117 times;\n   *************  **   ~~~   **   during Sizing 0 times.\n   *************  **   ~~~   **   Max=82.222222\n   *************\n   *************  ** Warning ** CalcDoe2DXCoil: Coil:Cooling:DX:SingleSpeed=\"COIL COOLING DX SINGLE SPEED 4 16KBTU/HR 14.0SEER\" - Low condenser dry-bulb temperature error continues...\n   *************  **   ~~~   **   This error occurred 802 total times;\n   *************  **   ~~~   **   during Warmup 0 times;\n   *************  **   ~~~   **   during Sizing 0 times.\n   *************  **   ~~~   **   Max=-5.551115E-017 [C]  Min=-26.1 [C]\n   *************\n   *************  ** Warning ** CalcDoe2DXCoil: Coil:Cooling:DX:SingleSpeed=\"COIL COOLING DX SINGLE SPEED 4 16KBTU/HR 14.0SEER\" - Full load outlet temperature indicates a possibility of frost/freeze error continues. Outlet air temperature statistics follow:\n   *************  **   ~~~   **   This error occurred 450 total times;\n   *************  **   ~~~   **   during Warmup 0 times;\n   *************  **   ~~~   **   during Sizing 0 times.\n   *************  **   ~~~   **   Max=1.999469  Min=-2.544312\n   *************\n   *************  ** Warning ** CalcDoe2DXCoil: Coil:Cooling:DX:SingleSpeed=\"COIL COOLING DX SINGLE SPEED 2 15KBTU/HR 14.0SEER\" - Low condenser dry-bulb temperature error continues...\n   *************  **   ~~~   **   This error occurred 723 total times;\n   *************  **   ~~~   **   during Warmup 0 times;\n   *************  **   ~~~   **   during Sizing 0 times.\n   *************  **   ~~~   **   Max=-2.500000E-002 [C]  Min=-30.75 [C]\n   *************\n   *************  ** Warning ** CalcDoe2DXCoil: Coil:Cooling:DX:SingleSpeed=\"COIL COOLING DX SINGLE SPEED 1 15KBTU/HR 14.0SEER\" - Low condenser dry-bulb temperature error continues...\n   *************  **   ~~~   **   This error occurred 364 total times;\n   *************  **   ~~~   **   during Warmup 0 times;\n   *************  **   ~~~   **   during Sizing 0 times.\n   *************  **   ~~~   **   Max=-2.500000E-002 [C]  Min=-21.25 [C]\n   *************\n   *************  ** Warning ** CalcDoe2DXCoil: Coil:Cooling:DX:SingleSpeed=\"COIL COOLING DX SINGLE SPEED 1 15KBTU/HR 14.0SEER\" - Full load outlet temperature indicates a possibility of frost/freeze error continues. Outlet air temperature statistics follow:\n   *************  **   ~~~   **   This error occurred 346 total times;\n   *************  **   ~~~   **   during Warmup 0 times;\n   *************  **   ~~~   **   during Sizing 0 times.\n   *************  **   ~~~   **   Max=1.995187  Min=-2.877629\n   *************\n   *************  ** Warning ** CalcDoe2DXCoil: Coil:Cooling:DX:SingleSpeed=\"COIL COOLING DX SINGLE SPEED 3 18KBTU/HR 14.0SEER\" - Low condenser dry-bulb temperature error continues...\n   *************  **   ~~~   **   This error occurred 584 total times;\n   *************  **   ~~~   **   during Warmup 0 times;\n   *************  **   ~~~   **   during Sizing 0 times.\n   *************  **   ~~~   **   Max=-2.500000E-002 [C]  Min=-30.75 [C]\n   *************\n   *************  ** Warning ** CalcDoe2DXCoil: Coil:Cooling:DX:SingleSpeed=\"COIL COOLING DX SINGLE SPEED 5 16KBTU/HR 14.0SEER\" - Low condenser dry-bulb temperature error continues...\n   *************  **   ~~~   **   This error occurred 313 total times;\n   *************  **   ~~~   **   during Warmup 0 times;\n   *************  **   ~~~   **   during Sizing 0 times.\n   *************  **   ~~~   **   Max=-2.500000E-002 [C]  Min=-15.2 [C]\n   *************\n   *************  ** Warning ** CalcDoe2DXCoil: Coil:Cooling:DX:SingleSpeed=\"COIL COOLING DX SINGLE SPEED 5 16KBTU/HR 14.0SEER\" - Full load outlet temperature indicates a possibility of frost/freeze error continues. Outlet air temperature statistics follow:\n   *************  **   ~~~   **   This error occurred 397 total times;\n   *************  **   ~~~   **   during Warmup 0 times;\n   *************  **   ~~~   **   during Sizing 0 times.\n   *************  **   ~~~   **   Max=1.989859  Min=-3.177992\n   *************\n   *************  ** Warning ** CalcDoe2DXCoil: Coil:Cooling:DX:SingleSpeed=\"COIL COOLING DX SINGLE SPEED 2 15KBTU/HR 14.0SEER\" - Full load outlet temperature indicates a possibility of frost/freeze error continues. Outlet air temperature statistics follow:\n   *************  **   ~~~   **   This error occurred 23 total times;\n   *************  **   ~~~   **   during Warmup 0 times;\n   *************  **   ~~~   **   during Sizing 0 times.\n   *************  **   ~~~   **   Max=1.94874  Min=1.108988\n   *************\n   *************  ** Warning ** CalcDoe2DXCoil: Coil:Cooling:DX:SingleSpeed=\"COIL COOLING DX SINGLE SPEED 3 18KBTU/HR 14.0SEER\" - Full load outlet temperature indicates a possibility of frost/freeze error continues. Outlet air temperature statistics follow:\n   *************  **   ~~~   **   This error occurred 5 total times;\n   *************  **   ~~~   **   during Warmup 0 times;\n   *************  **   ~~~   **   during Sizing 0 times.\n   *************  **   ~~~   **   Max=1.902923  Min=1.583587\n   *************\n   *************\n   ************* ===== Final Error Summary =====\n   ************* The following error categories occurred.  Consider correcting or noting.\n   ************* Nominally Unused Constructions\n   ************* ..The nominally unused constructions warning is provided to alert you to potential conditions that can cause\n   ************* ..extra time during simulation. Each construction is calculated by the algorithm indicated in the HeatBalanceAlgorithm\n   ************* ..object. You may remove the constructions indicated (when you use the DisplayExtraWarnings option).\n   *************\n   ************* EnergyPlus Warmup Error Summary. During Warmup: 0 Warning; 0 Severe Errors.\n   ************* EnergyPlus Sizing Error Summary. During Sizing: 37 Warning; 0 Severe Errors.\n   ************* EnergyPlus Completed Successfully-- 46795 Warning; 0 Severe Errors; Elapsed Time=00hr 00min 28.69sec\n",
   "file_format_version" : "0.0.1",
   "file_paths" : [ "../weather", "../seeds", "../seed" ],
   "hash" : "85CB52E3",
   "measure_paths" : [ "../measures" ],
   "name" : "LHS Autogenerated 892",
   "osa_id" : "4fef0e0f-5396-4c55-a6e1-2cd6803db3ab",
   "osd_id" : "eaa920db-ad60-4903-b69a-ed090cbc324a",
   "run_directory" : "./run",
   "seed_file" : "seed.osm",
   "started_at" : "20170710T192057Z",
   "steps" : [
      {
         "arguments" : {
            "__SKIP__" : false,
            "building_type" : "SmallOffice",
            "climate_zone" : "NECB HDD Method",
            "epw_file" : "CAN_PQ_Sherbrooke.716100_CWEC.epw",
            "template" : "NECB 2011"
         },
         "measure_dir_name" : "create_prototype_building",
         "name" : "create_prototype_building",
         "result" : {
            "completed_at" : "20170710T192148Z",
            "measure_class_name" : "CreatePrototypeBuilding",
            "measure_display_name" : "Create Prototype Building",
            "measure_name" : "create_prototype_building",
            "measure_taxonomy" : "Whole Building.Space Types",
            "measure_type" : "ModelMeasure",
            "measure_uid" : "ae90fsd7-a651-467a-bc8d-29d310b0f937",
            "measure_version_id" : "c6ec5c18-5595-459f-a082-09a19c8c869c",
            "measure_version_modified" : "20170519T182315Z",
            "measure_xml_checksum" : "057E8D9D",
            "started_at" : "20170710T192100Z",
            "stderr" : "",
            "stdout" : "[OpenStudio.Measure] <0> OSArgumentVector is deprecated, use OpenStudio::Measure::OSArgumentVector instead.\n[openstudio.EpwFile] <0> Successive data points (1986-Jan-31 to 1970-Feb-01, ending on line 753) are greater than 1 day apart in EPW file '/usr/local/bundle/bundler/gems/openstudio-standards-f448df66933d/openstudio-standards/data/weather/CAN_PQ_Sherbrooke.716100_CWEC.epw'. Data will be treated as typical (TMY)\n[openstudio.setFileExtension] <0> Path p, '/usr/local/bundle/bundler/gems/openstudio-standards-f448df66933d/openstudio-standards/data/weather/CAN_PQ_Sherbrooke.716100_CWEC.ddy', has an unexpected file extension. Was expecting 'idf'.\n[openstudio.model.YearDescription] <1> 'UseWeatherFile' is not yet a supported option for YearDescription\n[openstudio.model.YearDescription] <1> 'UseWeatherFile' is not yet a supported option for YearDescription\n[openstudio.setFileExtension] <0> Path p, '/usr/local/bundle/bundler/gems/openstudio-standards-f448df66933d/openstudio-standards/data/weather/CAN_PQ_Sherbrooke.716100_CWEC.ddy', has an unexpected file extension. Was expecting 'idf'.\n[openstudio.model.YearDescription] <1> 'UseWeatherFile' is not yet a supported option for YearDescription\n[openstudio.model.YearDescription] <1> 'UseWeatherFile' is not yet a supported option for YearDescription\n[openstudio.EpwFile] <0> Successive data points (1986-Jan-31 to 1970-Feb-01, ending on line 753) are greater than 1 day apart in EPW file '/usr/local/bundle/bundler/gems/openstudio-standards-f448df66933d/openstudio-standards/data/weather/CAN_PQ_Sherbrooke.716100_CWEC.epw'. Data will be treated as typical (TMY)\n[openstudio.weather.Model] <0> Could not find ground temperatures; will use generic temperatures, which will skew results.\n[openstudio.setFileExtension] <0> Path p, '/usr/local/bundle/bundler/gems/openstudio-standards-f448df66933d/openstudio-standards/data/weather/CAN_PQ_Sherbrooke.716100_CWEC.ddy', has an unexpected file extension. Was expecting 'idf'.\n[openstudio.model.YearDescription] <1> 'UseWeatherFile' is not yet a supported option for YearDescription\n[openstudio.model.YearDescription] <1> 'UseWeatherFile' is not yet a supported option for YearDescription\n[openstudio.EpwFile] <0> Successive data points (1986-Jan-31 to 1970-Feb-01, ending on line 753) are greater than 1 day apart in EPW file '/usr/local/bundle/bundler/gems/openstudio-standards-f448df66933d/openstudio-standards/data/weather/CAN_PQ_Sherbrooke.716100_CWEC.epw'. Data will be treated as typical (TMY)\n[openstudio.setFileExtension] <0> Path p, '/usr/local/bundle/bundler/gems/openstudio-standards-f448df66933d/openstudio-standards/data/weather/CAN_PQ_Sherbrooke.716100_CWEC.ddy', has an unexpected file extension. Was expecting 'idf'.\n[openstudio.model.YearDescription] <1> 'UseWeatherFile' is not yet a supported option for YearDescription\n[openstudio.model.YearDescription] <1> 'UseWeatherFile' is not yet a supported option for YearDescription\n[openstudio.setFileExtension] <0> Path p, '/usr/local/bundle/bundler/gems/openstudio-standards-f448df66933d/openstudio-standards/data/weather/CAN_PQ_Sherbrooke.716100_CWEC.ddy', has an unexpected file extension. Was expecting 'idf'.\n[openstudio.model.YearDescription] <1> 'UseWeatherFile' is not yet a supported option for YearDescription\n[openstudio.model.YearDescription] <1> 'UseWeatherFile' is not yet a supported option for YearDescription\n[openstudio.EpwFile] <0> Successive data points (1986-Jan-31 to 1970-Feb-01, ending on line 753) are greater than 1 day apart in EPW file '/usr/local/bundle/bundler/gems/openstudio-standards-f448df66933d/openstudio-standards/data/weather/CAN_PQ_Sherbrooke.716100_CWEC.epw'. Data will be treated as typical (TMY)\n[openstudio.setFileExtension] <0> Path p, '/usr/local/bundle/bundler/gems/openstudio-standards-f448df66933d/openstudio-standards/data/weather/CAN_PQ_Sherbrooke.716100_CWEC.ddy', has an unexpected file extension. Was expecting 'idf'.\n[openstudio.model.YearDescription] <1> 'UseWeatherFile' is not yet a supported option for YearDescription\n[openstudio.model.YearDescription] <1> 'UseWeatherFile' is not yet a supported option for YearDescription\n[openstudio.setFileExtension] <0> Path p, '/usr/local/bundle/bundler/gems/openstudio-standards-f448df66933d/openstudio-standards/data/weather/CAN_PQ_Sherbrooke.716100_CWEC.ddy', has an unexpected file extension. Was expecting 'idf'.\n[openstudio.model.YearDescription] <1> 'UseWeatherFile' is not yet a supported option for YearDescription\n[openstudio.model.YearDescription] <1> 'UseWeatherFile' is not yet a supported option for YearDescription\n[utilities.idf.WorkspaceObject] <0> Object of type 'Schedule:Constant' and named 'Always Off Discrete', points to an object named OnOff 1 from field 1, but that object cannot be located.\n[utilities.idf.WorkspaceObject] <0> Object of type 'Schedule:Constant' and named 'Always On Continuous', points to an object named Fractional 1 from field 1, but that object cannot be located.\n[utilities.idf.WorkspaceObject] <0> Object of type 'Schedule:Constant' and named 'Always Off Discrete', points to an object named OnOff 1 from field 1, but that object cannot be located.\n[utilities.idf.WorkspaceObject] <0> Object of type 'Schedule:Constant' and named 'Always On Continuous', points to an object named Fractional 1 from field 1, but that object cannot be located.\n[openstudio.standards.Fan] <0> For Fan Constant Volume 1, there is no greater nominal HP.  Use the efficiency of the largest motor category.\n[openstudio.standards.Fan] <0> For Fan Constant Volume 2, there is no greater nominal HP.  Use the efficiency of the largest motor category.\n[openstudio.standards.Fan] <0> For Fan Constant Volume 3, there is no greater nominal HP.  Use the efficiency of the largest motor category.\n[openstudio.standards.Fan] <0> For Fan Constant Volume 4, there is no greater nominal HP.  Use the efficiency of the largest motor category.\n[openstudio.standards.Fan] <0> For Fan Constant Volume 5, there is no greater nominal HP.  Use the efficiency of the largest motor category.\n[openstudio.EpwFile] <0> Successive data points (1986-Jan-31 to 1970-Feb-01, ending on line 753) are greater than 1 day apart in EPW file '/usr/local/bundle/bundler/gems/openstudio-standards-f448df66933d/openstudio-standards/data/weather/CAN_PQ_Sherbrooke.716100_CWEC.epw'. Data will be treated as typical (TMY)\n[openstudio.setFileExtension] <0> Path p, '/usr/local/bundle/bundler/gems/openstudio-standards-f448df66933d/openstudio-standards/data/weather/CAN_PQ_Sherbrooke.716100_CWEC.ddy', has an unexpected file extension. Was expecting 'idf'.\n[openstudio.model.YearDescription] <1> 'UseWeatherFile' is not yet a supported option for YearDescription\n[openstudio.model.YearDescription] <1> 'UseWeatherFile' is not yet a supported option for YearDescription\n[openstudio.setFileExtension] <0> Path p, '/usr/local/bundle/bundler/gems/openstudio-standards-f448df66933d/openstudio-standards/data/weather/CAN_PQ_Sherbrooke.716100_CWEC.ddy', has an unexpected file extension. Was expecting 'idf'.\n[openstudio.model.YearDescription] <1> 'UseWeatherFile' is not yet a supported option for YearDescription\n[openstudio.model.YearDescription] <1> 'UseWeatherFile' is not yet a supported option for YearDescription\n[openstudio.EpwFile] <0> Successive data points (1986-Jan-31 to 1970-Feb-01, ending on line 753) are greater than 1 day apart in EPW file '/usr/local/bundle/bundler/gems/openstudio-standards-f448df66933d/openstudio-standards/data/weather/CAN_PQ_Sherbrooke.716100_CWEC.epw'. Data will be treated as typical (TMY)\n[openstudio.setFileExtension] <0> Path p, '/usr/local/bundle/bundler/gems/openstudio-standards-f448df66933d/openstudio-standards/data/weather/CAN_PQ_Sherbrooke.716100_CWEC.ddy', has an unexpected file extension. Was expecting 'idf'.\n[openstudio.model.YearDescription] <1> 'UseWeatherFile' is not yet a supported option for YearDescription\n[openstudio.model.YearDescription] <1> 'UseWeatherFile' is not yet a supported option for YearDescription\n[openstudio.setFileExtension] <0> Path p, '/usr/local/bundle/bundler/gems/openstudio-standards-f448df66933d/openstudio-standards/data/weather/CAN_PQ_Sherbrooke.716100_CWEC.ddy', has an unexpected file extension. Was expecting 'idf'.\n[openstudio.model.YearDescription] <1> 'UseWeatherFile' is not yet a supported option for YearDescription\n[openstudio.model.YearDescription] <1> 'UseWeatherFile' is not yet a supported option for YearDescription\n[openstudio.EpwFile] <0> Successive data points (1986-Jan-31 to 1970-Feb-01, ending on line 753) are greater than 1 day apart in EPW file '/usr/local/bundle/bundler/gems/openstudio-standards-f448df66933d/openstudio-standards/data/weather/CAN_PQ_Sherbrooke.716100_CWEC.epw'. Data will be treated as typical (TMY)\n[openstudio.setFileExtension] <0> Path p, '/usr/local/bundle/bundler/gems/openstudio-standards-f448df66933d/openstudio-standards/data/weather/CAN_PQ_Sherbrooke.716100_CWEC.ddy', has an unexpected file extension. Was expecting 'idf'.\n[openstudio.model.YearDescription] <1> 'UseWeatherFile' is not yet a supported option for YearDescription\n[openstudio.model.YearDescription] <1> 'UseWeatherFile' is not yet a supported option for YearDescription\n[openstudio.setFileExtension] <0> Path p, '/usr/local/bundle/bundler/gems/openstudio-standards-f448df66933d/openstudio-standards/data/weather/CAN_PQ_Sherbrooke.716100_CWEC.ddy', has an unexpected file extension. Was expecting 'idf'.\n[openstudio.model.YearDescription] <1> 'UseWeatherFile' is not yet a supported option for YearDescription\n[openstudio.model.YearDescription] <1> 'UseWeatherFile' is not yet a supported option for YearDescription\n[openstudio.EpwFile] <0> Successive data points (1986-Jan-31 to 1970-Feb-01, ending on line 753) are greater than 1 day apart in EPW file '/usr/local/bundle/bundler/gems/openstudio-standards-f448df66933d/openstudio-standards/data/weather/CAN_PQ_Sherbrooke.716100_CWEC.epw'. Data will be treated as typical (TMY)\n[openstudio.setFileExtension] <0> Path p, '/usr/local/bundle/bundler/gems/openstudio-standards-f448df66933d/openstudio-standards/data/weather/CAN_PQ_Sherbrooke.716100_CWEC.ddy', has an unexpected file extension. Was expecting 'idf'.\n[openstudio.model.YearDescription] <1> 'UseWeatherFile' is not yet a supported option for YearDescription\n[openstudio.model.YearDescription] <1> 'UseWeatherFile' is not yet a supported option for YearDescription\n[openstudio.setFileExtension] <0> Path p, '/usr/local/bundle/bundler/gems/openstudio-standards-f448df66933d/openstudio-standards/data/weather/CAN_PQ_Sherbrooke.716100_CWEC.ddy', has an unexpected file extension. Was expecting 'idf'.\n[openstudio.model.YearDescription] <1> 'UseWeatherFile' is not yet a supported option for YearDescription\n[openstudio.model.YearDescription] <1> 'UseWeatherFile' is not yet a supported option for YearDescription\n[openstudio.EpwFile] <0> Successive data points (1986-Jan-31 to 1970-Feb-01, ending on line 753) are greater than 1 day apart in EPW file '/usr/local/bundle/bundler/gems/openstudio-standards-f448df66933d/openstudio-standards/data/weather/CAN_PQ_Sherbrooke.716100_CWEC.epw'. Data will be treated as typical (TMY)\n[openstudio.setFileExtension] <0> Path p, '/usr/local/bundle/bundler/gems/openstudio-standards-f448df66933d/openstudio-standards/data/weather/CAN_PQ_Sherbrooke.716100_CWEC.ddy', has an unexpected file extension. Was expecting 'idf'.\n[openstudio.model.YearDescription] <1> 'UseWeatherFile' is not yet a supported option for YearDescription\n[openstudio.model.YearDescription] <1> 'UseWeatherFile' is not yet a supported option for YearDescription\n[openstudio.setFileExtension] <0> Path p, '/usr/local/bundle/bundler/gems/openstudio-standards-f448df66933d/openstudio-standards/data/weather/CAN_PQ_Sherbrooke.716100_CWEC.ddy', has an unexpected file extension. Was expecting 'idf'.\n[openstudio.model.YearDescription] <1> 'UseWeatherFile' is not yet a supported option for YearDescription\n[openstudio.model.YearDescription] <1> 'UseWeatherFile' is not yet a supported option for YearDescription\n[openstudio.standards.Fan] <0> For Fan Constant Volume 1, there is no greater nominal HP.  Use the efficiency of the largest motor category.\n[openstudio.standards.Fan] <0> For Fan Constant Volume 2, there is no greater nominal HP.  Use the efficiency of the largest motor category.\n[openstudio.standards.Fan] <0> For Fan Constant Volume 3, there is no greater nominal HP.  Use the efficiency of the largest motor category.\n[openstudio.standards.Fan] <0> For Fan Constant Volume 4, there is no greater nominal HP.  Use the efficiency of the largest motor category.\n[openstudio.standards.Fan] <0> For Fan Constant Volume 5, there is no greater nominal HP.  Use the efficiency of the largest motor category.\n",
            "step_errors" : [],
            "step_files" : [],
            "step_info" : [
               "Started adding geometry",
               "Finished adding geometry",
               "Started adding weather file for climate zone: NECB HDD Method.",
               "Template =",
               "Setting Attic to Space Function.- undefined -",
               "Setting Core_ZN to Space Function.Office - enclosed",
               "Setting Perimeter_ZN_1 to Space Function.Office - enclosed",
               "Setting Perimeter_ZN_2 to Space Function.Office - enclosed",
               "Setting Perimeter_ZN_3 to Space Function.Office - enclosed",
               "Setting Perimeter_ZN_4 to Space Function.Office - enclosed",
               "Started applying space types (loads)",
               "Space Function - undefined - had no ventilation specification, one has been created.",
               "Space Function - undefined - had no infiltration objects, one has been created.",
               "Space Function - undefined - set infiltration to 0.0 per ft^2 exterior surface area.",
               "Space Function - undefined - set infiltration schedule to Always On.",
               "Space Function Office - enclosed had no people, one has been created.",
               "Space Function Office - enclosed set occupancy to 4.65 people/1000 ft^2.",
               "Space Function Office - enclosed had no lights, one has been created.",
               "Space Function Office - enclosed set LPD to 1.105536975 W/ft^2.",
               "Space Function Office - enclosed had no electric equipment, one has been created.",
               "Space Function Office - enclosed set electric EPD to 0.696767001 W/ft^2.",
               "Space Function Office - enclosed had no ventilation specification, one has been created.",
               "Space Function Office - enclosed set ventilation per area to 0.085 cfm/ft^2.",
               "Space Function Office - enclosed had no infiltration objects, one has been created.",
               "Space Function Office - enclosed set infiltration to 0.0 per ft^2 exterior surface area.",
               "Space Function Office - enclosed set occupancy schedule to NECB-A-Occupancy.",
               "Space Function Office - enclosed set occupant activity schedule to NECB-Activity.",
               "Space Function Office - enclosed set lighting schedule to NECB-A-Lighting.",
               "Space Function Office - enclosed set electric equipment schedule to NECB-A-Electric-Equipment.",
               "Space Function Office - enclosed set infiltration schedule to Always On.",
               "Space Function Office - enclosed set heating setpoint schedule to NECB-A-Thermostat Setpoint-Heating.",
               "Space Function Office - enclosed set cooling setpoint schedule to NECB-A-Thermostat Setpoint-Cooling.",
               "Finished applying space types (loads)",
               "For NECB 2011, no exterior wall area was found, no infiltration will be added.",
               "Started applying constructions",
               "Adding construction set: NECB 2011-NECB HDD Method-Office--is_residentialNo",
               "Adding construction Typical Insulated Exterior Mass Floor R-15.63.",
               "Adding construction Typical Insulated Exterior Mass Wall R-12.5.",
               "Adding construction Typical Insulated Metal Building Roof R-20.41.",
               "Adding construction Typical Interior Floor.",
               "Adding construction Typical Interior Wall.",
               "Adding construction Typical Interior Ceiling.",
               "Adding construction Typical Insulated Carpeted 6in Slab Floor.",
               "Adding construction U 0.55 SHGC 0.31 Dbl Ref-D Tint 6mm/6mm Air.",
               "Adding construction Typical Insulated Metal Door R-1.43.",
               "Adding construction U 0.35 SHGC 0.35 Dbl LoE (e2-.1) Tint 6mm/13mm Air.",
               "Adding construction Typical Overhead Door R-2.0.",
               "Adding construction U 0.48 SHGC 0.40 Dbl Ref-D Clr 6mm/13mm.",
               "Adding construction Typical Interior Window.",
               "Adding construction Typical Interior Door.",
               "Adding construction Typical Interior Partition.",
               "Finished applying constructions",
               "WWR NonRes = 0%; window = 0 ft2, wall = 0 ft2.",
               "WWR Res = 0%; window = 0 ft2, wall = 0 ft2.",
               "WWR Semiheated = 0%; window = 0 ft2, wall = 0 ft2.",
               "The skylight to roof ratios (SRRs) are: NonRes: 0%, Res: 0%.",
               "Started creating thermal zones",
               "Finished creating thermal zones",
               "Running simulation /mnt/openstudio/analysis_4fef0e0f-5396-4c55-a6e1-2cd6803db3ab/data_point_eaa920db-ad60-4903-b69a-ed090cbc324a/run/000_create_prototype_building/output/SmallOffice-NECB 2011-NECB HDD Method-CAN_PQ_Sherbrooke.716100_CWEC.epw/SR0.",
               "Finished run.",
               "Started Adding HVAC",
               "Finished adding HVAC",
               "Started Adding Service Water Heating",
               "Adding service water loop.",
               "Adding water heater.",
               "Template =",
               "Finished adding Service Water Heating",
               "Set sizing factors to 1.3 for heating and 1.3 for cooling.",
               "Running simulation /mnt/openstudio/analysis_4fef0e0f-5396-4c55-a6e1-2cd6803db3ab/data_point_eaa920db-ad60-4903-b69a-ed090cbc324a/run/000_create_prototype_building/output/SmallOffice-NECB 2011-NECB HDD Method-CAN_PQ_Sherbrooke.716100_CWEC.epw/SR1.",
               "Finished run.",
               "Started applying multizone vav OA sizing.",
               "Finished applying multizone vav OA sizing.",
               "Started applying prototype HVAC assumptions.",
               "For Fan Constant Volume 1: allowed_hp = 1.01HP; motor eff = 61.5%; total fan eff = 40% based on 524 cfm.",
               "For Fan Constant Volume 2: allowed_hp = 1.01HP; motor eff = 61.5%; total fan eff = 40% based on 576 cfm.",
               "For Fan Constant Volume 3: allowed_hp = 1.01HP; motor eff = 61.5%; total fan eff = 40% based on 669 cfm.",
               "For Fan Constant Volume 4: allowed_hp = 1.01HP; motor eff = 61.5%; total fan eff = 40% based on 586 cfm.",
               "For Fan Constant Volume 5: allowed_hp = 1.01HP; motor eff = 61.5%; total fan eff = 40% based on 566 cfm.",
               "Sp-Perimeter_ZN_2 Sys-3 Flr-1 Sch-A HPlcmt-east ZN NECB System 3 PSZ does not require an economizer because the total cooling capacity of 15362 Btu/hr is less than the minimum capacity of 68243 Btu/hr.",
               "Sp-Perimeter_ZN_1 Sys-3 Flr-1 Sch-A HPlcmt-south ZN NECB System 3 PSZ does not require an economizer because the total cooling capacity of 15927 Btu/hr is less than the minimum capacity of 68243 Btu/hr.",
               "Sp-Perimeter_ZN_3 Sys-3 Flr-1 Sch-A HPlcmt-north ZN NECB System 3 PSZ does not require an economizer because the total cooling capacity of 14593 Btu/hr is less than the minimum capacity of 68243 Btu/hr.",
               "Sp-Perimeter_ZN_4 Sys-3 Flr-1 Sch-A HPlcmt-west ZN NECB System 3 PSZ does not require an economizer because the total cooling capacity of 17836 Btu/hr is less than the minimum capacity of 68243 Btu/hr.",
               "Sp-Core_ZN Sys-3 Flr-1 Sch-A HPlcmt-core ZN NECB System 3 PSZ does not require an economizer because the total cooling capacity of 16163 Btu/hr is less than the minimum capacity of 68243 Btu/hr.",
               "Finished applying prototype HVAC assumptions.",
               "Started applying HVAC efficiency standards.",
               "For Sp-Core_ZN Sys-3 Flr-1 Sch-A HPlcmt-core ZN NECB System 3 PSZ, ERV not required based on 0% OA flow, design supply air flow of 566cfm, and climate zone NECB HDD Method.",
               "For Sp-Core_ZN Sys-3 Flr-1 Sch-A HPlcmt-core ZN NECB System 3 PSZ, ERV not required based on exhaust heat content.",
               "For NECB 2011 NECB HDD Method:  Sp-Core_ZN Sys-3 Flr-1 Sch-A HPlcmt-core ZN NECB System 3 PSZ: DCV is not required for any system.",
               "For Sp-Core_ZN Sys-3 Flr-1 Sch-A HPlcmt-core ZN NECB System 3 PSZ: Unoccupied fan shutoff not required because system fan HP of 0.57 HP is less than the minimum threshold of 0.75 HP.",
               "For Sp-Core_ZN Sys-3 Flr-1 Sch-A HPlcmt-core ZN NECB System 3 PSZ: Setting motorized OA damper schedule to Always On Discrete.",
               "For Sp-Perimeter_ZN_1 Sys-3 Flr-1 Sch-A HPlcmt-south ZN NECB System 3 PSZ, ERV not required based on 0% OA flow, design supply air flow of 586cfm, and climate zone NECB HDD Method.",
               "For Sp-Perimeter_ZN_1 Sys-3 Flr-1 Sch-A HPlcmt-south ZN NECB System 3 PSZ, ERV not required based on exhaust heat content.",
               "For NECB 2011 NECB HDD Method:  Sp-Perimeter_ZN_1 Sys-3 Flr-1 Sch-A HPlcmt-south ZN NECB System 3 PSZ: DCV is not required for any system.",
               "For Sp-Perimeter_ZN_1 Sys-3 Flr-1 Sch-A HPlcmt-south ZN NECB System 3 PSZ: Unoccupied fan shutoff not required because system fan HP of 0.59 HP is less than the minimum threshold of 0.75 HP.",
               "For Sp-Perimeter_ZN_1 Sys-3 Flr-1 Sch-A HPlcmt-south ZN NECB System 3 PSZ: Setting motorized OA damper schedule to Always On Discrete.",
               "For Sp-Perimeter_ZN_2 Sys-3 Flr-1 Sch-A HPlcmt-east ZN NECB System 3 PSZ, ERV not required based on 0% OA flow, design supply air flow of 576cfm, and climate zone NECB HDD Method.",
               "For Sp-Perimeter_ZN_2 Sys-3 Flr-1 Sch-A HPlcmt-east ZN NECB System 3 PSZ, ERV not required based on exhaust heat content.",
               "For NECB 2011 NECB HDD Method:  Sp-Perimeter_ZN_2 Sys-3 Flr-1 Sch-A HPlcmt-east ZN NECB System 3 PSZ: DCV is not required for any system.",
               "For Sp-Perimeter_ZN_2 Sys-3 Flr-1 Sch-A HPlcmt-east ZN NECB System 3 PSZ: Unoccupied fan shutoff not required because system fan HP of 0.58 HP is less than the minimum threshold of 0.75 HP.",
               "For Sp-Perimeter_ZN_2 Sys-3 Flr-1 Sch-A HPlcmt-east ZN NECB System 3 PSZ: Setting motorized OA damper schedule to Always On Discrete.",
               "For Sp-Perimeter_ZN_3 Sys-3 Flr-1 Sch-A HPlcmt-north ZN NECB System 3 PSZ, ERV not required based on 0% OA flow, design supply air flow of 524cfm, and climate zone NECB HDD Method.",
               "For Sp-Perimeter_ZN_3 Sys-3 Flr-1 Sch-A HPlcmt-north ZN NECB System 3 PSZ, ERV not required based on exhaust heat content.",
               "For NECB 2011 NECB HDD Method:  Sp-Perimeter_ZN_3 Sys-3 Flr-1 Sch-A HPlcmt-north ZN NECB System 3 PSZ: DCV is not required for any system.",
               "For Sp-Perimeter_ZN_3 Sys-3 Flr-1 Sch-A HPlcmt-north ZN NECB System 3 PSZ: Unoccupied fan shutoff not required because system fan HP of 0.53 HP is less than the minimum threshold of 0.75 HP.",
               "For Sp-Perimeter_ZN_3 Sys-3 Flr-1 Sch-A HPlcmt-north ZN NECB System 3 PSZ: Setting motorized OA damper schedule to Always On Discrete.",
               "For Sp-Perimeter_ZN_4 Sys-3 Flr-1 Sch-A HPlcmt-west ZN NECB System 3 PSZ, ERV not required based on 0% OA flow, design supply air flow of 669cfm, and climate zone NECB HDD Method.",
               "For Sp-Perimeter_ZN_4 Sys-3 Flr-1 Sch-A HPlcmt-west ZN NECB System 3 PSZ, ERV not required based on exhaust heat content.",
               "For NECB 2011 NECB HDD Method:  Sp-Perimeter_ZN_4 Sys-3 Flr-1 Sch-A HPlcmt-west ZN NECB System 3 PSZ: DCV is not required for any system.",
               "For Sp-Perimeter_ZN_4 Sys-3 Flr-1 Sch-A HPlcmt-west ZN NECB System 3 PSZ: Unoccupied fan shutoff not required because system fan HP of 0.68 HP is less than the minimum threshold of 0.75 HP.",
               "For Sp-Perimeter_ZN_4 Sys-3 Flr-1 Sch-A HPlcmt-west ZN NECB System 3 PSZ: Setting motorized OA damper schedule to Always On Discrete.",
               "For Fan Constant Volume 1: motor nameplate = 0.3264684252765731HP, motor eff = 61.5%.",
               "For Fan Constant Volume 2: motor nameplate = 0.35897297774432557HP, motor eff = 61.5%.",
               "For Fan Constant Volume 3: motor nameplate = 0.4167686252071316HP, motor eff = 61.5%.",
               "For Fan Constant Volume 4: motor nameplate = 0.3649905852680008HP, motor eff = 61.5%.",
               "For Fan Constant Volume 5: motor nameplate = 0.35234998671044143HP, motor eff = 61.5%.",
               "For Service Water Loop Pump: brake hp = 0.0HP, motor nameplate = 0.1HP, motor eff = 70.0%.",
               "For NECB 2011: Coil Cooling DX Single Speed 1: AirCooled Electric Resistance or None Single Package Capacity = 15kBtu/hr; SEER = 14.0",
               "For NECB 2011: Coil Cooling DX Single Speed 2: AirCooled Electric Resistance or None Single Package Capacity = 15kBtu/hr; SEER = 14.0",
               "For NECB 2011: Coil Cooling DX Single Speed 3: AirCooled Electric Resistance or None Single Package Capacity = 18kBtu/hr; SEER = 14.0",
               "For NECB 2011: Coil Cooling DX Single Speed 4: AirCooled Electric Resistance or None Single Package Capacity = 16kBtu/hr; SEER = 14.0",
               "For NECB 2011: Coil Cooling DX Single Speed 5: AirCooled Electric Resistance or None Single Package Capacity = 16kBtu/hr; SEER = 14.0",
               "For NECB 2011: 40.0gal Electricity Water Heater - 40kBtu/hr 1.0 Therm Eff; thermal efficiency = 1.0, skin-loss UA = 3Btu/hr",
               "Finished applying HVAC efficiency standards.",
               "Started adding daylighting controls.",
               "For Attic, daylighting control not applicable because no exterior fenestration is present.",
               "For Core_ZN, daylighting control not applicable because no exterior fenestration is present.",
               "Finished adding daylighting controls.",
               "Total Time = 48sec."
            ],
            "step_result" : "Success",
            "step_values" : [
               {
                  "name" : "building_type",
                  "value" : "SmallOffice"
               },
               {
                  "name" : "template",
                  "value" : "NECB 2011"
               },
               {
                  "name" : "climate_zone",
                  "value" : "NECB HDD Method"
               },
               {
                  "name" : "epw_file",
                  "value" : "CAN_PQ_Sherbrooke.716100_CWEC.epw"
               }
            ],
            "step_warnings" : [
               "[openstudio.EpwFile] Successive data points (1986-Jan-31 to 1970-Feb-01, ending on line 753) are greater than 1 day apart in EPW file '/usr/local/bundle/bundler/gems/openstudio-standards-f448df66933d/openstudio-standards/data/weather/CAN_PQ_Sherbrooke.716100_CWEC.epw'. Data will be treated as typical (TMY)",
               "[openstudio.EpwFile] Successive data points (1986-Jan-31 to 1970-Feb-01, ending on line 753) are greater than 1 day apart in EPW file '/usr/local/bundle/bundler/gems/openstudio-standards-f448df66933d/openstudio-standards/data/weather/CAN_PQ_Sherbrooke.716100_CWEC.epw'. Data will be treated as typical (TMY)",
               "[openstudio.weather.Model] Could not find ground temperatures; will use generic temperatures, which will skew results.",
               "[openstudio.EpwFile] Successive data points (1986-Jan-31 to 1970-Feb-01, ending on line 753) are greater than 1 day apart in EPW file '/usr/local/bundle/bundler/gems/openstudio-standards-f448df66933d/openstudio-standards/data/weather/CAN_PQ_Sherbrooke.716100_CWEC.epw'. Data will be treated as typical (TMY)",
               "[openstudio.EpwFile] Successive data points (1986-Jan-31 to 1970-Feb-01, ending on line 753) are greater than 1 day apart in EPW file '/usr/local/bundle/bundler/gems/openstudio-standards-f448df66933d/openstudio-standards/data/weather/CAN_PQ_Sherbrooke.716100_CWEC.epw'. Data will be treated as typical (TMY)",
               "[openstudio.standards.Fan] For Fan Constant Volume 1, there is no greater nominal HP.  Use the efficiency of the largest motor category.",
               "[openstudio.standards.Fan] For Fan Constant Volume 2, there is no greater nominal HP.  Use the efficiency of the largest motor category.",
               "[openstudio.standards.Fan] For Fan Constant Volume 3, there is no greater nominal HP.  Use the efficiency of the largest motor category.",
               "[openstudio.standards.Fan] For Fan Constant Volume 4, there is no greater nominal HP.  Use the efficiency of the largest motor category.",
               "[openstudio.standards.Fan] For Fan Constant Volume 5, there is no greater nominal HP.  Use the efficiency of the largest motor category.",
               "[openstudio.EpwFile] Successive data points (1986-Jan-31 to 1970-Feb-01, ending on line 753) are greater than 1 day apart in EPW file '/usr/local/bundle/bundler/gems/openstudio-standards-f448df66933d/openstudio-standards/data/weather/CAN_PQ_Sherbrooke.716100_CWEC.epw'. Data will be treated as typical (TMY)",
               "[openstudio.EpwFile] Successive data points (1986-Jan-31 to 1970-Feb-01, ending on line 753) are greater than 1 day apart in EPW file '/usr/local/bundle/bundler/gems/openstudio-standards-f448df66933d/openstudio-standards/data/weather/CAN_PQ_Sherbrooke.716100_CWEC.epw'. Data will be treated as typical (TMY)",
               "[openstudio.EpwFile] Successive data points (1986-Jan-31 to 1970-Feb-01, ending on line 753) are greater than 1 day apart in EPW file '/usr/local/bundle/bundler/gems/openstudio-standards-f448df66933d/openstudio-standards/data/weather/CAN_PQ_Sherbrooke.716100_CWEC.epw'. Data will be treated as typical (TMY)",
               "[openstudio.EpwFile] Successive data points (1986-Jan-31 to 1970-Feb-01, ending on line 753) are greater than 1 day apart in EPW file '/usr/local/bundle/bundler/gems/openstudio-standards-f448df66933d/openstudio-standards/data/weather/CAN_PQ_Sherbrooke.716100_CWEC.epw'. Data will be treated as typical (TMY)",
               "[openstudio.EpwFile] Successive data points (1986-Jan-31 to 1970-Feb-01, ending on line 753) are greater than 1 day apart in EPW file '/usr/local/bundle/bundler/gems/openstudio-standards-f448df66933d/openstudio-standards/data/weather/CAN_PQ_Sherbrooke.716100_CWEC.epw'. Data will be treated as typical (TMY)",
               "[openstudio.standards.Fan] For Fan Constant Volume 1, there is no greater nominal HP.  Use the efficiency of the largest motor category.",
               "[openstudio.standards.Fan] For Fan Constant Volume 2, there is no greater nominal HP.  Use the efficiency of the largest motor category.",
               "[openstudio.standards.Fan] For Fan Constant Volume 3, there is no greater nominal HP.  Use the efficiency of the largest motor category.",
               "[openstudio.standards.Fan] For Fan Constant Volume 4, there is no greater nominal HP.  Use the efficiency of the largest motor category.",
               "[openstudio.standards.Fan] For Fan Constant Volume 5, there is no greater nominal HP.  Use the efficiency of the largest motor category."
            ]
         }
      },
      {
         "arguments" : {
            "__SKIP__" : false
         },
         "measure_dir_name" : "view_model",
         "name" : "view_model",
         "result" : {
            "completed_at" : "20170710T192149Z",
            "measure_class_name" : "ViewModel",
            "measure_display_name" : "ViewModel",
            "measure_name" : "view_model",
            "measure_taxonomy" : "Reporting.QAQC",
            "measure_type" : "ModelMeasure",
            "measure_uid" : "f4669f10-fda5-489d-8e1c-7ca3c2d40378",
            "measure_version_id" : "f4975c5f-7c25-42a2-927b-02d99b4427ef",
            "measure_version_modified" : "20170526T150340Z",
            "measure_xml_checksum" : "1E1F8B97",
            "started_at" : "20170710T192149Z",
            "stderr" : "",
            "stdout" : "[OpenStudio.Measure] <0> OSArgumentVector is deprecated, use OpenStudio::Measure::OSArgumentVector instead.\n",
            "step_errors" : [],
            "step_files" : [
               "/mnt/openstudio/analysis_4fef0e0f-5396-4c55-a6e1-2cd6803db3ab/data_point_eaa920db-ad60-4903-b69a-ed090cbc324a/run/001_view_model/report.html",
               "/mnt/openstudio/analysis_4fef0e0f-5396-4c55-a6e1-2cd6803db3ab/data_point_eaa920db-ad60-4903-b69a-ed090cbc324a/run/001_view_model/report.json"
            ],
            "step_final_condition" : "Report written to <a href='file:////mnt/openstudio/analysis_4fef0e0f-5396-4c55-a6e1-2cd6803db3ab/data_point_eaa920db-ad60-4903-b69a-ed090cbc324a/run/001_view_model/report.html'>report.html</a>.",
            "step_info" : [ "No changes made to the model." ],
            "step_result" : "NA",
            "step_values" : [
               {
                  "name" : "view_model_html_zip",
[...]
ME9Wye3LrVzVS0+HqCc0/a+/3OqKvn7zSjr1S/1E6Mq81q17Ids9HKjudZvr65CEur6eDgrS9Jf5aI7EgVA9Hv1v7LJpu0aVoZ+Mo7abFXbELpNvSQd38+p2Gg3H7b2BXtQV+aWBc6p7P4jTSgj/mH9uczaJpmS9QJfGtG9ICK5oOlR4P27LjePSiXdU98DJSE51v7fKazsfJKImvZ2oovvtO/KP8/K57Pg7T8vk9PcC2lnvvv9ibX5BuOBq90jG6EzUdZWPxXATiP6L1YjJpiePVb6STaKDa23LrXe/91trx9uhM4kS0r/JT6X0vrvIwZaqWcfVn/8pnHPcbpJtO41Lv3dX77gd1L05OTuYXr55ioVre9ivXU120i0SFH+oc/MnxGNfv6+tVnt2JTmudDGWmFA+ids/nWw+o4Uv9iGv6rriS7+tdysWNnl2n43bde5Hf0uP5/aw/kiaTY5uz7Opv1o2SZkn8QdnFmX+3bqR4Fg6i7N4uVPnl2mdVhFiEqquymEhWp5U6w8N58tFtMZxXJx6xLaSrmstws2f91CmqqtX3P61bU+i2syP++POt+O/rP9+Is9dv3v7y+0/i19c//fJS/Hz65tRO4FU+a6u7UC/RRBaLNE4yMb3+mOfBQBSPZKciTAf54iWajiwUF9de6yxV5rAjLuwnl0Rl18lUzMIkVa8mcZi1Qz3lb+W3cumzi+Izq4u5fom2FLY8hXXCn77CFjGf+WwXe7/MXbS/yo41wAEOcIADHOAABzjAAQ5wgLPxOI/3hdBEiRqCBjSgAQ1oQAMa0IAGNKABDWiqaR7tTKRp9L5DwAEOcIADHOAABzjAAQ5wgAOcOjj2u5gVv2Gb71EGUpCCFKQgBSlIQQpSkIIUpCAFKUg3g3Tt9poF6XzzTJCCFKQgBSlIQQpSkIIUpCAFKUhBuhmkTnscF9TzHYxBDWpQgxrUoAY1qEENalCDGtSgBjWovyL1AmuYhLfttWJ33SzKJupsHM5UN1N3WfvZz/F1kq7HuH985I/RRzVNo3g6UWmhsEZiZ0e8GA5FKAolcRtlY5HGH5UY9tccmd6MuuFsprcTaenYra01ByxaN8yypN26a3XEfs/xoPuW3rTE+qA0u9e7rmi87XA6GMdJ62GrE0eNy3iabd+qaDTOtMZFPBnaa8zvze+nL3/YfrH9ejC4nuU098+2qu7O8510kESz7N/G7zzfGUY3X+42HmMWy7VENDxpDXTqvszPNoymKjmX+y1RXIKT1jBKZ5Pw/jia6r1vti8m8eDD9y0zXy46PwWR3c/y4/VV2LkKb8L5p5VH6lZsyHMzEieLfXem6vbsZtRu/fMxY0fs6m1s8j/WjpqlzVve/VXuyHPc+sy2r9WZ95zftY5lt9dpFQbyreNet7fXaQ30TJMfVBr7tT51rIQCLqE+l9Aul9Ael9A+l9ABl9DhipCsrXO0olOfR/a4hFYT+6i+UMAl1OcS2uUS2uMS2ucSWk3sg/pCh1x5tJrZ/frz42pmB/WFJJdQwCXENmUHbnP2Y/cku9KWqKGDjrmyuemYr5KbjvkauemYy5qbjrmquemYi5qbjrGmuckYS5qbjLmiOeoYC5qjjrGeOeoYy5mjjrGaOeoYi5mjjrGWOeoYS5mjjrGSOeoYC5njbGisY446xjLmqGOsYo46XNNzRQ17JPTIlsKufmnjCgchcwFzFDJfIkch8yVyFDLXMEchcxFzFDJXMUchYxlz1DHWMUcdcyFzFTJWMlchYylzFTLWMlchYzFzFTJWM1chYzlzFTLWM1chY0FzFTJWNNf50VjSXIWMNc1VyFjUXIXYpuyKsvZIyf7NTMsfRc7f3WSIUfFTSrYYFf8aZotR8e9kthgVP/Zki1HxE1G2GBU/LGWLcdhAjKMGYnxW5D0FaWKkyyaGumxirMsmBrtsYrTLJoa7bGK8yyYGvGxixAdNjPigkdrexIiv+lk3X5CaI37tizGWy635qzMMMSruCFuMihvCFqPifrDFqJiA2WJUzL9sMSqmX7YYFbMvW4yKyZctRtVyiy9IEyO9arnFF6SJsV613OIL0sRor1pu8QVpYrxXLbf4gjQx4quWW3xBGqntTYz4quUWX5CaI97pGVzLpdf8KV3meBV3yku8ipvmJV7F/fMSr2Ly9hKvYh73Eq9iSvcSz/wUopdw5ocVvYSreKbRTzzzo49+4pmfkPQTz/wgpZ945uct/cQzP5bpJ5756U0/8cwPefqJZ34W1E888yOjfqq7+clSP/HMD6D6iWd+TtVPvKaXL1Xrz0XA9zZvfpTvZokTMVW3ixdLivdJ2unNqFO8GbL2FZLFC16pyn6Ir6fDtL3X6wgp9zqir/8W7Nm9hnKXYzy8wzYcvgwzNYqT+xd3UTp/QerhAli8RZYLvE6GKnlzrd9Xsj5Qc9yvcvymwvQ6UXMM/cpVeeE9v82HbnSjG93oRje60Y1udKMb3ehGN7rRjW50oxvd6EY3utGNbnSjG93oRje60Y1udG9w9303vlFJEg3Vb6F+MEh2e8TnbQoD3dVHe85UEqm0fDyo1Vk8ADWbxFlXu/qufcQn/dJzRuufDEq7hXHGLJ6EWRRPc6hWmqnZ9oW6jBPVsnty61c1UtPh6gnNP2vv9zqir5+80i7AUv9R2jyvdcBeyHbPRyo7nWb6+uQhLq+ng4K0vSX+WiOxIFQPR79b+yyabtGlaGfjKO2mxV2xC6Tb0kHd/PqdhoNx+29gV7UFfmmKXOqez+I00oI/5h/bnM2iaZkvUCXxrRvSAiuaDpUeD9uy43j0ol3VPfAyUhOdb+3yms7HySiJr2dqKL77Tvyj/Pyuez4O0/L5PT3AtpZ777/Ym1+QbjgavdIxuhM1HWVj8VwE4j+i9WIyaYnj1W+kk2ig2tty613v/dba8fboTOJEtK/yU+l9L67yMGWqlnH1Z//KZxz3G6SbTuNS793V++4HdS9OTk7mF6+eYqFa3vYr11NdtItEhR/qHPzJ8RjX7+vrVZ7diU5rnQxlphQPonbP5/sZqOFL/Yhr+q64ku/rXcrFjZ5dp+N23XuR39Lj+f2sP5Imk2Obs+zqb9aNkmZJ/EHZxZl/t26keBYOouzeLlT55dpnVYRYhKqrsphIVqeVOsPDefLRbTGcVycesS2kq5rLcLNn/dQpqqrV9z+tW1PotrMj/vjzrfjv6z/fiLPXb97+8vtP4tfXP/3yUvx8+ubUTuBVPmuru1Av0UQWizROMjG9/pjnwUAUj2SnIkwH+eIlmo4sFBfXXussVeawIy7sJ5dEZdfJVMzCJFWvJnGYtUM95W/lt3Lps4viM6uLuX6JthS2PIV1wp++wr4zn3l2FxvKzA25v8o2OMABDnCAAxzgAAc4wAEOcICz8TiPt5bQRIkaggY0oAENaEADGtCABjSgAQ1oqmke7WmkafSGRcABDnCAAxzgAAc4wAEOcIADnDo49vucFb9hm29iBlKQghSkIAUpSEEKUpCCFKQgBSlIN4N07UabBel8F02QghSkIAUpSEEKUpCCFKQgBSlIQboZpE6bHBfU8x2MQQ1qUIMa1KAGNahBDWpQgxrUoAY1qL8i9QJrmIS37bVid90syibqbBzOVDdTd1n72c/xdZKux7h/fOSP0Uc1TaN4OlFpobBGYmdHvBgORSgKJXEbZWORxh+VGPbXHJnejLrhbKa3E2np2K2tNQcsWjfMsqTdumt1xH7P8aD7lt60xPqgNLvXu65ovO1wOhjHSethqxNHjct4mm3fqmg0zrTGRTwZ2mvM783vpy9/2H6xfaaSm2igxP+E+nWbn1WYRdPRs62qO/V8Jx0k0Sz7t/E7z3eG0c2Xu43HmMVyLRENT1oDncYv8zMPo6lKzuVBSxSX46Q1jNLZJLw/jqZ6H5zti0k8+PB9y8yXi85PQWT3s/x4fUV2rsKbcP5p5ZG6FZvz3IzEyWIPnqm6PbsZtVv/fMzYEbt6S5v8j7UjaGkjl3d/lbvzHLc+s/BrdeY953etY9ntdVqFmXzr+Gi3e7Tc+p3WQE9BuULp+Nf61LFSDbyo9r2o7npR3fOiuu9F9WBJ9WCvK3lUD72oHnlRlT0/stKPbOBHtu9HdteP7J4f2X0/sn7GmPQzyKSfURb4GWWBn1EW+CligZ8qFhDK2GNDqhorhEQNHUQtr62bqOWVdRO1vK5uoparAzdRy8WBm6jlvOUmajlruYlazlluorYLA0dVyxnLUdVyWeCoarkqcFS1XBQ4qlquCRxVLZcEjqpeRpbtgsBR1cvYsl0OOKp6GVu2iwFHVS8Vy3Yp8Ej1kWFKjWWA9ldxULW8rI6qlpfVUdXysjqqWi4FHFUt1wKOqpZTlqOq5ZTlqGo5ZTmq2q4HXGUtJy1XWcsVgaus5ZLAVdZyTeAqa7kocJW1XBW4yvoZY7brAldZP6PMdmXgKutnlNmuDVxl/VQx29XBI1n7V6/r/H5h/qY2Q0Dbn9qwBbT9eQ5bQNuf9LAFtP1dBltA219zsAU8aDrgYdMBj5oOuLJSaiZi43ONbHyykY3PNrLx6UY2Pt/Ixicc2fiMIxufcmTjc07Q+JwTNL++aXzOsf6NFV9Ejjln7RuDdZap8xcMGQLa3kW2gLY3kS2g7T1kC2hbNtgC2lYNtoC2RYMtoG3NYAtoWzLYAlovU/kiNj7XWC9T+SI2PttYL1P5IjY+31gvU/kiNj7jWC9T+SI2PudYL1P5Ija/vml8zrFepvJF5JhznF7qqLNknb8Dwhzc9u56CW57o70Et73nXoLblhwvwW2rj5fgts/Peglu+5Stl+C2z+J6CW79YLyf6LZP9vqJbvuYvZ/otk/j+4lu+9C+n+i2z/b7iW77CoCf6F91prN+ocBP9K8611m/nuAn+led66yX636if9UVnfUyfhH9vc1bmOU70+JETNXt4iXP4t3Odnoz6hRvaa59nXPx4nWqsh/i6+kwbe/1OkLKvY7o678Fe3avhN7lGA/vlg+HL8NMjeLk/sVdlM5fXH64GhZvd+cCr5OhSt5c6/eIrQ/UHPerHL+pML1O1BxDvwpd3gXq++rFy7Wroc5UEqm0xM0jlTdkNomzrn7jd23I9EvnvZ407RYP48ziSZhF8TSHaqWZmm1fqMs4US27TPpVjdR0uHpC88/a+3kW9HUm6DeEpf6jfB187ZvyC9nu+Uhlp9NMX588xOX1dFCQtrfEXxbvg2tC9XD0u7VjQ7foUrSzcZTmea2Pswuk29JB3fz6nYaDcftvYFe1BX75wnSpez6L00gL/ph/bHM2i6ZlvkCVxLduSAusaDpUeuBuy47j0Yt2VffAy0hNdL61y2s6HyejJL6eqaH47jvxj/Lzu+75OEzL+UQPsK3l3vsv9uYXpBuORq90jO5ETUfZWDwXgfiPaL2YTFriePUb6SQaqPa23HrXe7+1drw9OpM4Ee2r/FR634urPEyZqmVc/dm/ToR0v0G66TQu9d5dve9+UPn0dnIyv3j1FAvV8rZfuZ7qol0kKvxQ5+BPjse4fl9fr/LsTnRa62QoM6UojN3zue+JGr7UJTd9V1zJ9/Uu5eJGz67Tcbvuvchv6fH8ftYfSZPJsc1ZdvU360ZJsyT+oOzizL9bN1I8Cwf5assuVPnl2mdVhFiEqquymEhWp5U6w8N58tFtMZxXJ558rSpd1VyGmz3rp05RVa2+/2ndmkK3nR3xx59vxX9f//lGnL1+8/aX338Sv77+6ZeX4ufTN6d2Aq/yWVvdhXqJJrJYpHG+kJ5ef8zzYCCKJWIqwnSQL16i6chCcXHttc5SZQ474sJ+cklUdp1MxSxMUvVqEodZO9RT/lZ+K5c+uyg+s7qY65doS2HLU1gn/Okr+FN99lZ6YTw1f8v8q9hlAQc4wAEOcIADHOAABzjAAc7G4zx2/dBEiRqCBjSgAQ1oQAMa0IAGNKABDWiqaR75JGka7XsEHOAABzjAAQ5wgAMc4AAHOMCpg2PvAVb8hm3u6QVSkIIUpCAFKUhBClKQghSkIAUpSDeDdK2ZYkE6N0cEKUhBClKQghSkIAUpSEEKUpCCFKSbQerkwFpQzx1VQQ1qUIMa1KAGNahBDWpQgxrUoAY1qL8i9QJrmIS37bVid90syibqbBzOVDdTd1n72c/xdZKux7h/fORb9XGmkjC7TpRov9rSGmtEdnbEi+FQhKLQErdRNhZp/FGJYX/NkenNqBvOZnpDkZaO3tpac8CidcMsS+ZbyOz3HA/SG74E9gel2b3ed0XjbYfTwThOWg+bnThqXMbTbPtWRaNxpjUu4snQXmN+d34/ffnD9ovtt2OVfIzTLMzEmcpmcZQLv4zjSTQdPduqul/Pd9JBEs2yfxu/83xnGN18udt4jFks1xLR8KQ10On8Mj//MJqq5FwetkRxUU5awyidTcL742iq98PZvpjEgw/ft8x8uej8FER2P8uP19dl5yq8CeefVh6pW7FJz81InCz24pmq27ObUbv1z8eMHbGrt7bJ/1g7kpY2dHn39y5Rn1n5mfZR3d/t9k27P82d/1b2nqpQDbyo9r2o7npR3fOiuu9FdXnPvf0D8w5gbqore+nJ7t6y6m5t1SMvqqsbffLJSj+ygR/Zvh/ZXT+ye35k9/3IHviR9TPIpJ9RFvgZZYGfURb4KWKBnyoWEMrYY2OqGiuERA0dRC2vrZuo5ZV1E7W8rm6ilqsDN1HLxYGbqOXawE3UctZyE7Wcs9xEbRcGjqqWM5ajquWywFHVclXgqGq5KHBUtVwTOKpaLgkcVS1XBI6qXoaW7XrAsQZ4GVu2qwFHVS8Fy3Yt4Khat2Q9Mk6psQzQPisOqpaX1VHV8rI6qlpeVkdVy6WAo6rlWsBR1XIx4KhqOWU5qlpOWY6qtusBV1nLSctV1nJF4CpruSRwlbVcE7jKWi4KXGUtVwWuspbLAldZP4PMdmHgWhX8jDLbpYGrrJ8iZrs4cJWtW8bsX8Gu8/uF+RvbDAFtf2rDFtD25zlsAW1/0sMW0PZ3GWwBbX/NwRbwoOmAh00HPGo64MpKqZmIjc81svHJRjY+28jGpxvZ+HwjG59wZOMzjmx8ypGNzzlB43NO0Pz6pvE5x/o3VnwROeactW8O1lmmzl80ZAhoexfZAtreRLaAtveQLaBt2WALaFs12ALaFg22gLY1gy2gbclgC2i9TOWL2PhcY71M5YvY+GxjvUzli9j4fGO9TOWL2PiMY71M5YvY+JxjvUzli9j8+qbxOcd6mcoXkWPOcXq5o86Sdf4uCHNw27vrJbjtjfYS3PaeewluW3K8BLetPl6C2z6j7iW47VO2XoLbPovrJbj1g/F+ots+2esnuu1j9n6i2z6N7ye67UP7fqLbPtvvJ7rtKwB+otu+KeAn+led6qzfO/Czpvmqc531Wwx+on/VBZ310t1PdNcl3XubtzDLd6fFiZiq28VLnsW7ne30ZtQp3tJc+zrn4gXsVGU/xNfTYdre63WElHsd0dd/C/bsXgm9yzEe3jEfDl+GmRrFyf2Luyidv778cDUs3vLOBV4nQ5W8udZvE1sfqDnuVzl+U2F6nag5hn4hurwL1PfWi5drV0OdqSRSaYmbRypvyGwSZ139xu/akOmXzns9adotHsaZxZMwi+JpDtVKMzXbvlCXcaJadpn0qxqp6XD1hOaftffzLOjrTNBvCEv9R/lS+Nr35Rey3fORyk6nmb4+eYjL6+mgIG1vib8s3grXhOrh6Hdrx4Zu0aVoZ+MozfNaH2cXSLelg7r59TsNB+P238Cuagv88oXpUvd8FqeRFvwx/9jmbBZNy3yBKolv3ZAWWNF0qPTA3ZYdx6MX7arugZeRmuh8a5fXdD5ORkl8PVND8d134h/l53fd83GYlvOJHmBby733X+zNL0g3HI1e6RjdiZqOsrF4LgLxH9F6MZm0xPHqN9JJNFDtbbn1rvd+a+14e3QmcSLaV/mp9L4XV3mYMlXLuPqzf50I6X6DdNNpXOq9u3rf/aDy6e3kZH7x6ikWquVtv3I91UW7SFT4oc7BnxyPcf2+vl7l2Z3otNbJUGZKURi753P/EzV8qUtu+q64ku/rXcrFjZ5dp+N23XuR39Lj+f2sP5Imk2Obs+zqb9aNkmZJ/EHZxZl/t26keBYO8tWWXajyy7XPqgixCFVXZTGRrE4rdYaH8+Sj22I4r048+VpVuqq5DDd71k+doqpaff/TujWFbjs74o8/34r/vv7zjTh7/ebtL7//JH59/dMvL8XPp29O7QRe5bO2ugv1Ek1ksUjjfCE9vf6Y58FAFEvEVITpIF+8RNORheLi2mudpcocdsSF/eSSqOw6mYpZmKTq1SQOs3aop/yt/FYufXZRfGZ1Mdcv0ZbClqewTvjTV/Cp+uyt9MKAav6W+VexzQIOcIADHOAABzjAAQ5wgAOcjcd57PqhiRI1BA1oQAMa0IAGNKABDWhAAxrQVNM88knSNNr3CDjAAQ5wgAMc4AAHOMABDnCAUwfH3gOs+A3b3NMLpCAFKUhBClKQghSkIAUpSEEKUpBuBulaM8WCdG6OCFKQghSkIAUpSEEKUpCCFKQgBSlIN4PUyYG1oJ47qoIa1KAGNahBDWpQgxrUoAY1qEENalB/ReoF1jAJb9trxe66WZRN1Nk4nKlupu6y9rOf4+skXY9x//jIt+rjTCVhdp0o0X61pTXWiOzsiBfDoQhFoSVuo2ws0vijEsP+miPTm1E3nM30hiItHb21teaAReuGWZbMt5DZ7zkepDd8CewPSrN7ve+KxtsOp4NxnLQeNjtx1LiMp9n2rYpG40xrXMSTob3G/O78fvryh+0X22/HKvkYp1mYiTOVzeIoF/5ZhVk0HT3bqrpfz3fSQRLNsn8bv/N8ZxjdfLnbeIxZLNcS0fCkNdDp/DI//zCaquRcHrVEcVFOWsMonU3C++NoqvfD2b6YxIMP37fMfLno/BREdj/Lj9fXZecqvAnnn1YeqVuxSc/NSJws9uKZqtuzm1G79c/HjB2xq7e2yf9YO5KWNnR59/cuUZ9Z+Zn2UZX9Yg+wgZ5+9I5Pc7e/lf2mKpQCNqU+m9Ium9Iem9I+m9IBm9Ihm9IRm9LK5ptEKb4sl3xpLvnyXPIluuTLdMmX6pIv1yVfsku+bA/4sj1gnNP5sj3gy/bAMdsfGy9ZVsBEDR2EKq6Vm1DFlXITqrhObkIVc4KbUMWM4CZUMR+4CVXMBm5CFXOBm1BV4XNUYsvtqrLnqMSW3VVFz1GJLb+rSp6jEluGVxU8RyW2HK8qd45KfPM3W45X1TpHJZccf2R8YVnmtDeGg1LFZXJUqrhMjkoVl8lRqWIqcFSqmAoclSqmAkeliqnAUaliKnBUqqp3rlJ8WV5V8Vyl+PK8qua5SvFlelXVc5Xiy/WquucqxZftVZXPVYpxTufL9qri5yq1NtuxGT02oy+FLA7DZvSPGjajt8HCZvTYjL5Ow2b0umEzemxGXzRsRl/9TWxGv15AN2xGvxl7NgIHOMABDnCAAxzgAAc4wAHOxuM8sa0cQQMa0IAGNKABDWhAAxrQgGZzaJ7Wno3AAQ5wgAMc4AAHOMABDnCA86RwvqI524tBFt1E2f2v6kZNRPt/YM/2FO3Zypu0EU5sQe/pO7HljE05sfW6vT0WIzaSUJ9LaJdLaI9LaJ9L6IBL6JBL6IhLaOW9fJoSW25LtuSWbNkt2dJbsuW3ZEtwyZbhki3FJVuOB2w5HvDN32w5HrDleOCW4/aOa6ta9Q3XKDrmq1Tfbo2iY54F6putUXTMM0B9qzWKjnn0E4zWSEJcGV1R3gguayQhrqSuqG0EizWSEFdeVxQ2gr8aaWbkyuyKqkYwVyMJcWV2RUmr76y2qkMwViMJmS8RwVaNJGQe/ARTNZKQefATLNVIQubBTzFUoymx5XZFZaO4qdGU2NK7orhRrNRoSmwZXlHfKD5qtLmSLccrShzFRI2mxJbjFVUODmpwUIOD2iNCOKjpBgc1OKjBQa2iwUENDmpOZwUHtZX4Dt+Hg9pyg4PaQ/PwwNYTMxoADnCAAxzgAAc4wAEOcIADnI3HeWL+A6ABDWhAAxrQgAY0oAENaECzOTTfjO8BcIADHOAABzjAAQ5wgAMc4NSP9xUc1GCY9qQM084GYzW8zq+yfh0qVZmQvc2wTZMbYJsmG7NN2y9eCq1rccMl1OcS2uUS2uMS2ucSOuASOuQSOuISWnn7nqbEltuSLbklW3ZLtvSWbPkt2RJcsmW4ZEtxyZbjAVuOB3zzN1uOB2w5HrjluL1t2qpWfds0io75KtW3TaPomGeB+rZpFB3zDFDfNo2iYx79BNs0khBXRleUN4JtGkmIK6krahvBNo0kxJXXFYWNYJtGmhm5MruiqhFs00hCXJldUdLq26at6hBs00hC5ktEsE0jCZkHP8E2jSRkHvwE2zSSkHnwU2zTaEpsuV1R2Si2aTQltvSuKG4U2zSaEluGV9Q3im0aba5ky/GKEkexTaMpseV4RZWDbRps02Cb9ogQtmm6wTYNtmmwTatosE2DbZrTWcE2bSW+w/dhm7bcYJv20Dw8pfXE3AWAAxzgAAc4wAEOcIADHOAAZ+NxnpjpAGhAAxrQgAY0oAENaEADGtBsDs03Y3YAHOAABzjAAQ5wgAMc4AAHOPXjwTatbLBNe7BNk5thmxZsgG1a0JhtWq8bsLimUXT6TDq7TDp7TDr7TDoHTDqHTDpHTDorL92ThLgyWnKltOTKacmV1JIrqyVXWkuuvJZciS25MjvgyuyAba7myuyAK7MDp8y2t0dbkarvjkaQMV6h+t5oBBnjuK/vjEaQMY75+r5oBBnjeCe4olF0mPLYXMYIlmgUHaZUNtcwgh8aRYcpm80FjGCGRpkHmfLZXL0ITmgUHaZ8Npeu+jZoKzIEFzSKjvHyEDzQKDrG4U5wQKPoGIc7wf+MomMc7hT3M5IQV0abKxjF+owkxJXU5iJG8T0jCXHltbmOUUzPSDMjV2abSxnF8YwkxJXZ5moGuzPYncHu7BEh7M50g90Z7M5gd1bRYHcGuzOns4Ld2Up8h+/D7my5we7soXl4uuqJuQIABzjAAQ5wgAMc4AAHOMABzsbjPDGzANCABjSgAQ1oQAMa0IAGNKDZHJpvxqQAOMABDnCAAxzgAAc4wAEOcOrHg91Z2WB39mB3FmyG3Vl/A+zO+g3anfX2mPzOCEJ9LqFdLqE9LqF9LqEDLqFDLqEjLqHPXrenKLHltmRLbsmW3ZItvSVbfku2BJdsGS7ZUlyy5XjAluMB3/zNluMBW44HbjnuYoO2rEXxQauvY75KFCe0+jrmWYDihVZfxzwDUNzQ6uuYRz/JD40gxJXRFeWNZIlGEOJK6oraRnJFIwhx5XVFYSMZoxFmRq7MrqhqJG80ghBXZleUNIo92rIOyR+NIGS+RCSHNIKQefCTPNIIQubBT3JJIwiZBz/NJ42ixJbbFZWNZpVGUWJL74riRnNLoyixZXhFfaMZplHmSrYcryhxNM80ihJbjldUOdimwTYNtmmPCGGbphts02CbBtu0igbbNNimOZ0VbNNW4jt8H7Zpyw22aQ/Nw1NaT8xdADjAAQ5wgAMc4AAHOMABDnA2HueJmQ6ABjSgAQ1oQAMa0IAGNKABzebQfDNmB8ABDnCAAxzgAAc4wAEOcIBTPx5s08oG27QH27T+Ztim7W6AbdpuY7Zp+8VLoXUtbriE+lxCu1xCe1xC+1xCB1xCh1xCR1xCK2/f05TYcluyJbdky27Jlt6SLb8lW4JLtgyXbCku2XI8YMvxgG/+ZsvxgC3HA7cct7dNW9Wqb5tG0TFfpfq2aRQd8yxQ3zaNomOeAerbplF0zKOfYJtGEuLK6IryRrBNIwlxJXVFbSPYppGEuPK6orARbNNIMyNXZldUNYJtGkmIK7MrSlp927RVHYJtGknIfIkItmkkIfPgJ9imkYTMg59gm0YSMg9+im0aTYkttysqG8U2jabElt4VxY1im0ZTYsvwivpGsU2jzZVsOV5R4ii2aTQlthyvqHKwTYNtGmzTHhHCNk032KbBNg22aRUNtmmwTXM6K9imrcR3+D5s05YbbNMemoentJ6YuwBwgAMc4AAHOMABDnCAAxzgbDzOEzMdAA1oQAMa0IAGNKABDWhAA5rNoflmzA6AAxzgAAc4wAEOcIADHOAAp3482KaVDbZpD7Zpu5thm7a3AbZpe43ZpvW6AYtrGkWnz6Szy6Szx6Szz6RzwKRzyKRzxKSz8tI9SYgroyVXSkuunJZcSS25slpypbXkymvJldiSK7MDrswO2OZqrswOuDI7cMpse3u0Fan67mgEGeMVqu+NRpAxjvv6zmgEGeOYr++LRpAxjneCKxpFhymPzWWMYIlG0WFKZXMNI/ihUXSYstlcwAhmaJR5kCmfzdWL4IRG0WHKZ3Ppqm+DtiJDcEGj6BgvD8EDjaJjHO4EBzSKjnG4E/zPKDrG4U5xPyMJcWW0uYJRrM9IQlxJbS5iFN8zkhBXXpvrGMX0jDQzcmW2uZRRHM9IQlyZba5msDuD3Rnszh4Rwu5MN9idwe4MdmcVDXZnsDtzOivYna3Ed/g+7M6WG+zOHpqHp6uemCsAcIADHOAABzjAAQ5wgAMc4Gw8zhMzCwANaEADGtCABjSgAQ1oQAOazaH5ZkwKgAMc4AAHOMABDnCAAxzgAKd+PNidlQ12Zw92Z3ubYXe2vwF2Z/sN2p319pj8zghCfS6hXS6hPS6hfS6hAy6hQy6hIy6hz163pyix5bZkS27Jlt2SLb0lW35LtgSXbBku2VJcsuV4wJbjAd/8zZbjAVuOB2457mKDtqxF8UGrr2O+ShQntPo65lmA4oVWX8c8A1Dc0OrrmEc/yQ+NIMSV0RXljWSJRhDiSuqK2kZyRSMIceV1RWEjGaMRZkauzK6oaiRvNIIQV2ZXlDSKPdqyDskfjSBkvkQkhzSCkHnwkzzSCELmwU9ySSMImQc/zSeNosSW2xWVjWaVRlFiS++K4kZzS6MosWV4RX2jGaZR5kq2HK8ocTTPNIoSW45XVDnYpsE2DbZpjwhhm6YbbNNgmwbbtIoG2zTYpjmdFWzTVuI7fB+2acsNtmkPzcNTWk/MXQA4wAEOcIADHOAABzjAAQ5wNh7niZkOgAY0oAENaEADGtCABjSgAc3m0HwzZgfAAQ5wgAMc4AAHOMABDnCAUz8ebNPKBtu0B9u0/c2wTTvYANu0g8Zs0/aLl0LrWtxwCfW5hHa5hPa4hPa5hA64hA65hI64hFbevqcpseW2ZEtuyZbdki29JVt+S7YEl2wZLtlSXLLleMCW4wHf/M2W4wFbjgduOW5vm7aqVd82jaJjvkr1bdMoOuZZoL5tGkXHPAPUt02j6JhHP8E2jSTEldEV5Y1gm0YS4krqitpGsE0jCXHldUVhI9imkWZGrsyuqGoE2zSSEFdmV5S0+rZpqzoE2zSSkPkSEWzTSELmwU+wTSMJmQc/wTaNJGQe/BTbNJoSW25XVDaKbRpNiS29K4obxTaNpsSW4RX1jWKbRpsr2XK8osRRbNNoSmw5XlHlYJsG2zTYpj0ihG2abrBNg20abNMqGmzTYJvmdFawTVuJ7/B92KYtN9imPTQPT2k9MXcB4AAHOMABDnCAAxzgAAc4wNl4nCdmOgAa0IAGNKABDWhAAxrQgAY0m0PzzZgdAAc4wAEOcIADHOAABzjAAU79eLBNKxts0x5s0w42wzbtcANs0w4bs03rdQMW1zSKTp9JZ5dJZ49JZ59J54BJ55BJ54hJZ+Wle5IQV0ZLrpSWXDktuZJacmW15EpryZXXkiuxJVdmB1yZHbDN1VyZHXBlduCU2fb2aCtS9d3RCDLGK1TfG40gYxz39Z3RCDLGMV/fF40gYxzvBFc0ig5THpvLGMESjaLDlMrmGkbwQ6PoMGWzuYARzNAo8yBTPpurF8EJjaLDlM/m0lXfBm1FhuCCRtExXh6CBxpFxzjcCQ5oFB3jcCf4n1F0jMOd4n5GEuLKaHMFo1ifkYS4ktpcxCi+ZyQhrrw21zGK6RlpZuTKbHMpoziekYS4MttczWB3Brsz2J09IoTdmW6wO4PdGezOKhrszmB35nRWsDtbie/wfdidLTfYnT00D09XPTFXAOAABzjAAQ5wgAMc4AAHOMDZeJwnZhYAGtCABjSgAQ1oQAMa0IAGNJtD882YFAAHOMABDnCAAxzgAAc4wAFO/XiwOysb7M4Wdmf9zXA7O9oAt7OjBt3OentMdmcEoT6X0C6X0B6X0D6X0AGX0CGX0BGX0Gdv21OU2HJbsiW3ZMtuyZbeki2/JVuCS7YMl2wpLtlyPGDL8YBv/mbL8YAtxwO3HHdxQVvWotig1dcxXyWKEVp9HfMsQLFCq69jngEoZmj1dcyjn2SHRhDiyuiK8kZyRCMIcSV1RW0jmaIRhLjyuqKwkXzRCDMjV2ZXVDWSNRpBiCuzK0oaxR1tWYdkj0YQMl8ikkEaQcg8+EkWaQQh8+AnmaQRhMyDn2aTRlFiy+2KykZzSqMosaV3RXGjmaVRlNgyvKK+0fzSKHMlW45XlDiaZRpFiS3HK6ocXNPgmgbXtEeEcE3TDa5pcE2Da1pFg2saXNOczgquaSvxHb4P17TlBte0h+bhIa0nZi4AHOAABzjAAQ5wgAMc4AAHOBuP88Q8B0ADGtCABjSgAQ1oQAMa0IBmc2i+Ga8D4AAHOMABDnCAAxzgAAc4wKkfD65pZYNr2sI1bXcjXNP6vafvmpYzNuWatl+8E1rX4YZLqM8ltMsltMcltM8ldMAldMgldMQltPLyPU2JLbclW3JLtuyWbOkt2fJbsiW4ZMtwyZbiki3HA7YcD/jmb7YcD9hyPHDLcXvXtFWt+q5pFB3zVarvmkbRMc8C9V3TKDrmGaC+axpFxzz6Ca5pJCGujK4obwTXNJIQV1JX1DaCaxpJiCuvKwobwTWNNDNyZXZFVSO4ppGEuDK7oqTVd01b1SG4ppGEzJeI4JpGEjIPfoJrGknIPPgJrmkkIfPgp7im0ZTYcruislFc02hKbOldUdwormk0JbYMr6hvFNc02lzJluMVJY7imkZTYsvxiioH1zS4psE17REhXNN0g2saXNPgmlbR4JoG1zSns4Jr2kp8h+/DNW25wTXtoXl4SOuJmQsABzjAAQ5wgAMc4AAHOMABzsbjPDHPAdCABjSgAQ1oQAMa0IAGNKDZHJpvxusAOMABDnCAAxzgAAc4wAEOcOrHg2ta2eCatnBN29sM1zS5Aa5psjHXtF43YDFNo+j0mXR2mXT2mHT2mXQOmHQOmXSOmHRW3rknCXFltORKacmV05IrqSVXVkuutJZceS25EltyZXbAldkB21zNldkBV2YHTplt7462IlXfHI0gY7xC9a3RCDLGcV/fGI0gYxzz9W3RCDLG8U4wRaPoMOWxuYwRHNEoOkypbK5hBDs0ig5TNpsLGMELjTIPMuWzuXoRjNAoOkz5bC5d9V3QVmQIJmgUHePlIVigUXSMw51ggEbRMQ53gv0ZRcc43CnmZyQhrow2VzCK8xlJiCupzUWMYntGEuLKa3Mdo3iekWZGrsw2lzKK4RlJiCuzzdUMbmdwO4Pb2SNCuJ3pBrczuJ3B7ayiwe0MbmdOZwW3s5X4Dt+H29lyg9vZQ/PwcNUTMwUADnCAAxzgAAc4wAEOcIADnI3HeWJeAaABDWhAAxrQgAY0oAENaECzOTTfjEcBcIADHOAABzjAAQ5wgAMc4NSPB7ezssHtbOF2tr8ZbmfBBridBQ26nfX2mOzOCEJ9LqFdLqE9LqF9LqEDLqFDLqEjLqHP3ranKLHltmRLbsmW3ZItvSVbfku2BJdsGS7ZUlyy5XjAluMB3/zNluMBW44Hbjnu4oK2rEWxQauvY75KFCO0+jrmWYBihVZfxzwDUMzQ6uuYRz/JDo0gxJXRFeWN5IhGEOJK6oraRjJFIwhx5XVFYSP5ohFmRq7MrqhqJGs0ghBXZleUNIo72rIOyR6NIGS+RCSDNIKQefCTLNIIQubBTzJJIwiZBz/NJo2ixJbbFZWN5pRGUWJL74riRjNLoyixZXhFfaP5pVHmSrYcryhxNMs0ihJbjldUObimwTUNrmmPCOGaphtc0+CaBte0igbXNLimOZ0VXNNW4jt8H65pyw2uaQ/Nw0NaT8xcADjAAQ5wgAMc4AAHOMABDnA2HueJeQ6ABjSgAQ1oQAMa0IAGNKABzebQfDNeB8ABDnCAAxzgAAc4wAEOcIBTPx5c08oG17SFa9rBZrim9TfANa3fmGvafvFOaF2HGy6hPpfQLpfQHpfQPpfQAZfQIZfQEZfQysv3NCW23JZsyS3Zsluypbdky2/JluCSLcMlW4pLthwP2HI84Ju/2XI8YMvxwC3H7V3TVrXqu6ZRdMxXqb5rGkXHPAvUd02j6JhngPquaRQd8+gnuKaRhLgyuqK8EVzTSEJcSV1R2wiuaSQhrryuKGwE1zTSzMiV2RVVjeCaRhLiyuyKklbfNW1Vh+CaRhIyXyKCaxpJyDz4Ca5pJCHz4Ce4ppGEzIOf4ppGU2LL7YrKRnFNoymxpXdFcaO4ptGU2DK8or5RXNNocyVbjleUOIprGk2JLccrqhxc0+CaBte0R4RwTdMNrmlwTYNrWkWDaxpc05zOCq5pK/Edvg/XtOUG17SH5uEhrSdmLgAc4AAHOMABDnCAAxzgAAc4G4/zxDwHQAMa0IAGNKABDWhAAxrQgGZzaL4ZrwPgAAc4wAEOcIADHOAABzjAqR8Prmllg2vawjXtcDNc03Y3wDVttzHXtF43YDFNo+j0mXR2mXT2mHT2mXQOmHQOmXSOmHRW3rknCXFltORKacmV05IrqSVXVkuutJZceS25EltyZXbAldkB21zNldkBV2YHTplt7462IlXfHI0gY7xC9a3RCDLGcV/fGI0gYxzz9W3RCDLG8U4wRaPoMOWxuYwRHNEoOkypbK5hBDs0ig5TNpsLGMELjTIPMuWzuXoRjNAoOkz5bC5d9V3QVmQIJmgUHePlIVigUXSMw51ggEbRMQ53gv0ZRcc43CnmZyQhrow2VzCK8xlJiCupzUWMYntGEuLKa3Mdo3iekWZGrsw2lzKK4RlJiCuzzdUMbmdwO4Pb2SNCuJ3pBrczuJ3B7ayiwe0MbmdOZwW3s5X4Dt+H29lyg9vZQ/PwcNUTMwUADnCAAxzgAAc4wAEOcIADnI3HeWJeAaABDWhAAxrQgAY0oAENaECzOTTfjEcBcIADHOAABzjAAQ5wgAMc4NSPB7ezssHtbOF2drQZbmd7G+B2tteY25nc7XV7S03uspifMcr2/cju+pHd8yO770f2wI/soR/ZIz+yK+/6c+p6GmfS00CTnkaa9DTUpKexJj0NNulptElPw016Gm+Bp/EW+KprnsZb4Gm8BZTxZu8qV6Vc32SOT9X26ta3oONTtZ3J6hvU8anazmL17ev4VG1nMIK5HaOsn9FlvVwgOOExyvoZYNZrBYJtHqOsnzFmvVAgeOwxVgU/o8x6lUAw5GOU9TPKrJcI9d37qlQJZn6MsraXlmD1xyhrO4ERjAAZZW0nMIJNIKOs7QRGMRHk1PU0zqxXChTHQU5dT0PNerFAsSfk1PU02qzXCxQvQ8464Wm8WS8ZKMaHnLqexpv1qgEuiXBJhEviI0K4JOoGl0S4JMIlsaLBJREuiU5nBZfElfgO34dL4nKDS+JD8/BQ5hMzEwEOcIADHOAABzjAAQ5wgAOcjcd5Yh4joAENaEADGtCABjSgAQ1oQLM5NN+MtwlwgAMc4AAHOMABDnCAAxzg1I/3FVwS36qPM5WE2XWiRPvVFkwTn5ZpokpuooES/xPqzPs1jmdC3zD9nPNu79VmGCjub4CB4n5jBor7R92jpXZ4xOKfyKfa96K660V1z4vqvhfVAy+qh15Uj7yortgbMMr6GV3Sz/CSfsaX9DPApJ8RJv0MMelnjEk/g0z6GWWBn1EWeKphfkZZ4GeUBYRRZm+UWCFc3yeRTdTyytZ3SWQTtZy76nsksolazlv1HRLZRC3nLII/Ip+qlzFluywgmCPyqXoZVrZrAoIzIp+ql5FluyAg2CLy1QAvY8t2NUDwRORT9TK2bJcC9Q0RK0QJfoh8qpaXleCGyKdqOWURvBD5VC2nLIITIp+q5ZRF8UFklPUzumxXBBQTREZZPwPMdlFAcUBklPUzxmzXBRT7Q8aq4GeU2S4NKN6HjLJ+Rpnt6gDGhzA+hPHhI0IYH+oG40MYH8L4sKLB+BDGh05nBePDlfgO34fx4XKD8eFD8/Cc5RPzBwEOcIADHOAABzjAAQ5wgAOcjcd5YrYhoAENaEADGtCABjSgAQ1oQLM5NN+MXQlwgAMc4AAHOMABDnCAAxzg1I8H48Mvt2/W+HBuePizKv7z4uNFpKbZ3PrwbDBWw+v8+m+Lg02xQDzYAAvEg8YsEIsXT+taMDHp9Jl0dpl09ph09pl0Dph0Dpl0jph0VrwFSEJcGS25Ulpy5bTkSmrJldWSK60lV15LrsSWXJkdcGV2wDZXc2V2wJXZgVNm21v2rUjVN+kjyBivUH0jPoKMcdzXN9sjyBjHfH1DPYKMcbwTTPMoOkx5bC5jBCs8ig5TKptrGMHgjqLDlM3mAkawraPMg0z5bK5eBDM6ig5TPptLV32LuRUZgqkcRcd4eQjGcRQd43AnmMNRdIzDnWAAR9ExDneKyRtJiCujzRWMYt1GEuJKanMRoxiykYS48tpcxyg2a6SZkSuzzaWMYp5GEuLKbHM1gyXaRliioRvd6EY3utGNbnSjG93oRje60Y1udKP7KXXfd+MblSTRUP0W6h9UyW4PlvhLZwJL/IcGS3ynBkt8WOI7NFjif95gif95gyW+Y4MlPizxv9hgiQ8c4AAHOMABDnCAAxzgAAc4wNkEQ0nQgAY0oAENaEADGtCABjSg2Ryab8bIEjjAAQ5wgAMc4AAHOMABDnDqx/sKlvg/Rh/VNI3i6USlKQzxn5Yhfpx8EKeXl9EgUtPB/YMNfrMG+OW3P+tZ/v/F3+f/fVAv//Lwn4t4eK//O84+Tv79v/4fYlQo3Q=="
               },
               {
                  "name" : "annual_peak_electric_demand",
                  "units" : "kW",
                  "value" : 40.75761
               },
               {
                  "name" : "first_year_capital_cost",
                  "units" : "$",
                  "value" : 0
               },
               {
                  "name" : "annual_utility_cost",
                  "units" : "$",
                  "value" : 11057.700000000001
               },
               {
                  "name" : "total_lifecycle_cost",
                  "units" : "$",
                  "value" : 185132.5
               }
            ],
            "step_warnings" : [ "A table in Annual Overview section returned false and was skipped." ]
         }
      }
   ],
   "updated_at" : "20170710T192248Z",
   "weather_file" : "USA_CO_Denver.Intl.AP.725650_TMY3.epw"
}
