{
   "completed_at" : "20170710T184813Z",
   "completed_status" : "Success",
   "created_at" : "2017-07-10 18:46:29 +0000",
   "current_step" : 5,
   "description" : "",
   "eplusout_err" : "Program Version,EnergyPlus, Version 8.7.0-78a111df4a, YMD=2017.07.10 18:47,IDD_Version 8.7.0\n   ************* IDF Context for following error/warning message:\n   ************* Note -- lines truncated at 300 characters, if necessary...\n   *************      5 Building,\n   ************* indicated Name=NECB 2011-FullServiceRestaurant-NECB HDD Method-CAN_SK_Swift.Current.718700_CWEC.epw created: 2017-07-10 18:46:35 +0000\n   ************* Only last 1 lines before error line shown.....\n   *************      6   NECB 2011-FullServiceRestaurant-NECB HDD Method-CAN_SK_Swift.Current.718700_CWEC.epw created: 2017-07-10 18:46:35 +0000, !- Name\n   ** Warning ** IP: IDF line~6 Alpha Argument length exceeds maximum, will be truncated=  NECB 2011-FullServiceRestaurant-NECB HDD Method-CAN_SK_Swift.Current.718700_CWEC.epw created: 2017-07-10 18:46:35 +000\n   **   ~~~   ** Will be processed as Alpha=NECB 2011-FULLSERVICERESTAURANT-NECB HDD METHOD-CAN_SK_SWIFT.CURRENT.718700_CWEC.EPW CREATED: 2017-07-10 18:46:35 +0000\n   ************* Beginning Zone Sizing Calculations\n   ** Warning ** ProcessScheduleInput: Schedule:Day:Interval=\"ECONOMIZER MAX OA FRACTION 100 PCT DEFAULT\", Blank Schedule Type Limits Name input -- will not be validated.\n   ** Warning ** ProcessScheduleInput: Schedule:Day:Interval=\"SCHEDULE DAY 1\", Blank Schedule Type Limits Name input -- will not be validated.\n   ** Warning ** ProcessScheduleInput: Schedule:Day:Interval=\"SCHEDULE DAY 10\", Blank Schedule Type Limits Name input -- will not be validated.\n   ** Warning ** ProcessScheduleInput: Schedule:Day:Interval=\"SCHEDULE DAY 11\", Blank Schedule Type Limits Name input -- will not be validated.\n   ** Warning ** ProcessScheduleInput: Schedule:Day:Interval=\"SCHEDULE DAY 12\", Blank Schedule Type Limits Name input -- will not be validated.\n   ** Warning ** ProcessScheduleInput: Schedule:Day:Interval=\"SCHEDULE DAY 2\", Blank Schedule Type Limits Name input -- will not be validated.\n   ** Warning ** ProcessScheduleInput: Schedule:Day:Interval=\"SCHEDULE DAY 5\", Blank Schedule Type Limits Name input -- will not be validated.\n   ** Warning ** ProcessScheduleInput: Schedule:Day:Interval=\"SCHEDULE DAY 6\", Blank Schedule Type Limits Name input -- will not be validated.\n   ** Warning ** ProcessScheduleInput: Schedule:Day:Interval=\"SCHEDULE DAY 7\", Blank Schedule Type Limits Name input -- will not be validated.\n   ** Warning ** ProcessScheduleInput: Schedule:Day:Interval=\"SCHEDULE DAY 8\", Blank Schedule Type Limits Name input -- will not be validated.\n   ** Warning ** ProcessScheduleInput: Schedule:Day:Interval=\"SCHEDULE DAY 9\", Blank Schedule Type Limits Name input -- will not be validated.\n   ** Warning ** ProcessScheduleInput: Schedule:Year=\"ECONOMIZER MAX OA FRACTION 100 PCT\", Blank Schedule Type Limits Name input -- will not be validated.\n   ** Warning ** ProcessScheduleInput: Schedule:Year=\"SCHEDULE RULESET 3\", Blank Schedule Type Limits Name input -- will not be validated.\n   ** Warning ** ProcessScheduleInput: Schedule:Year=\"SCHEDULE RULESET 4\", Blank Schedule Type Limits Name input -- will not be validated.\n   ** Warning ** ProcessScheduleInput: Schedule:Year=\"SCHEDULE RULESET 5\", Blank Schedule Type Limits Name input -- will not be validated.\n   ** Warning ** ProcessScheduleInput: Schedule:Year=\"SCHEDULE RULESET 6\", Blank Schedule Type Limits Name input -- will not be validated.\n   ** Warning ** ProcessScheduleInput: Schedule:Year=\"SCHEDULE RULESET 7\", Blank Schedule Type Limits Name input -- will not be validated.\n   ** Warning ** ProcessScheduleInput: Schedule:Year=\"SCHEDULE RULESET 8\", Blank Schedule Type Limits Name input -- will not be validated.\n   ** Warning ** ProcessScheduleInput: Schedule:Constant=\"ALWAYS OFF DISCRETE\", Blank Schedule Type Limits Name input -- will not be validated.\n   ** Warning ** ProcessScheduleInput: Schedule:Constant=\"ALWAYS ON CONTINUOUS\", Blank Schedule Type Limits Name input -- will not be validated.\n   ** Warning ** CheckUsedConstructions: There are 24 nominally unused constructions in input.\n   **   ~~~   ** For explicit details on each unused construction, use Output:Diagnostics,DisplayExtraWarnings;\n   ************* Beginning System Sizing Calculations\n   ************* Beginning Plant Sizing Calculations\n   ** Warning ** GetDXCoils: Coil:Cooling:DX:SingleSpeed=\"COIL COOLING DX SINGLE SPEED 2 78KBTU/HR 9.7EER\", invalid\n   **   ~~~   ** ...Part Load Fraction Correlation Curve Name = DXCOOL-NECB2011-REF-COOLPLFFPLR 1 has out of range value.\n   **   ~~~   ** ...Curve maximum must be <= 1.0, curve max at PLR = 0.99 is 1.015\n   **   ~~~   ** ...Setting curve maximum to 1.0 and simulation continues.\n   ** Warning ** GetDXCoils: Coil:Cooling:DX:SingleSpeed=\"COIL COOLING DX SINGLE SPEED 1 17KBTU/HR 14.0SEER\", invalid\n   **   ~~~   ** ...Part Load Fraction Correlation Curve Name = DXCOOL-NECB2011-REF-COOLPLFFPLR has out of range value.\n   **   ~~~   ** ...Curve maximum must be <= 1.0, curve max at PLR = 0.99 is 1.015\n   **   ~~~   ** ...Setting curve maximum to 1.0 and simulation continues.\n   ** Warning ** The Standard Ratings is calculated for Coil:Cooling:DX:SingleSpeed = COIL COOLING DX SINGLE SPEED 2 78KBTU/HR 9.7EER but not at the AHRI test condition due to curve out of bound.\n   **   ~~~   **  Review the Standard Ratings calculations in the Engineering Reference for this coil type. Also, use Output:Diagnostics, DisplayExtraWarnings for further guidance.\n   ** Warning ** The Standard Ratings is calculated for Coil:Cooling:DX:SingleSpeed = COIL COOLING DX SINGLE SPEED 1 17KBTU/HR 14.0SEER but not at the AHRI test condition due to curve out of bound.\n   **   ~~~   **  Review the Standard Ratings calculations in the Engineering Reference for this coil type. Also, use Output:Diagnostics, DisplayExtraWarnings for further guidance.\n   ** Warning ** Output:Meter: invalid Name=\"DISTRICTCOOLING:FACILITY\" - not found.\n   ** Warning ** Output:Meter: invalid Name=\"DISTRICTHEATING:FACILITY\" - not found.\n   ** Warning ** Output:Meter:MeterFileOnly requested for \"Electricity:Facility\" (TimeStep), already on \"Output:Meter\". Will report to both eplusout.eso and eplusout.mtr\n   ************* Testing Individual Branch Integrity\n   ************* All Branches passed integrity testing\n   ************* Testing Individual Supply Air Path Integrity\n   ************* All Supply Air Paths passed integrity testing\n   ************* Testing Individual Return Air Path Integrity\n   ************* All Return Air Paths passed integrity testing\n   ************* No node connection errors were found.\n   ************* Beginning Simulation\n   ** Warning ** CalcDoe2DXCoil: Coil:Cooling:DX:SingleSpeed \"COIL COOLING DX SINGLE SPEED 1 17KBTU/HR 14.0SEER\" - Full load outlet air dry-bulb temperature < 2C. This indicates the possibility of coil frost/freeze. Outlet temperature = -0.78 C.\n   **   ~~~   **  ...Occurrence info = RUN PERIOD 1, 03/31 08:05 - 08:08\n   **   ~~~   ** ... Possible reasons for low outlet air dry-bulb temperatures are: This DX coil\n   **   ~~~   **    1) may have a low inlet air dry-bulb temperature. Inlet air temperature = 11.706 C.\n   **   ~~~   **    2) may have a low air flow rate per watt of cooling capacity. Check inputs.\n   **   ~~~   **    3) is used as part of a HX assisted cooling coil which uses a high sensible effectiveness. Check inputs.\n   ** Warning ** CalcDoe2DXCoil: Coil:Cooling:DX:SingleSpeed \"COIL COOLING DX SINGLE SPEED 2 78KBTU/HR 9.7EER\" - Full load outlet air dry-bulb temperature < 2C. This indicates the possibility of coil frost/freeze. Outlet temperature = 0.46 C.\n   **   ~~~   **  ...Occurrence info = RUN PERIOD 1, 05/13 09:10 - 09:12\n   **   ~~~   ** ... Possible reasons for low outlet air dry-bulb temperatures are: This DX coil\n   **   ~~~   **    1) may have a low inlet air dry-bulb temperature. Inlet air temperature = 14.550 C.\n   **   ~~~   **    2) may have a low air flow rate per watt of cooling capacity. Check inputs.\n   **   ~~~   **    3) is used as part of a HX assisted cooling coil which uses a high sensible effectiveness. Check inputs.\n   ************* Simulation Error Summary *************\n   ************* There are 9 unused schedules in input.\n   ************* There are 9 unused week schedules in input.\n   ************* There are 14 unused day schedules in input.\n   ************* Use Output:Diagnostics,DisplayUnusedSchedules; to see them.\n   *************\n   ************* ===== Recurring Error Summary =====\n   ************* The following recurring error messages occurred.\n   *************\n   *************  ** Warning ** Plant loop falling below lower temperature limit, PlantLoop=\"MAIN SERVICE WATER LOOP\"\n   *************  **   ~~~   **   This error occurred 2 total times;\n   *************  **   ~~~   **   during Warmup 2 times;\n   *************  **   ~~~   **   during Sizing 0 times.\n   *************  **   ~~~   **   Min=2.839337\n   *************\n   *************  ** Warning ** CalcDoe2DXCoil: Coil:Cooling:DX:SingleSpeed=\"COIL COOLING DX SINGLE SPEED 1 17KBTU/HR 14.0SEER\" - Full load outlet temperature indicates a possibility of frost/freeze error continues. Outlet air temperature statistics follow:\n   *************  **   ~~~   **   This error occurred 137 total times;\n   *************  **   ~~~   **   during Warmup 0 times;\n   *************  **   ~~~   **   during Sizing 0 times.\n   *************  **   ~~~   **   Max=1.983543  Min=-2.128293\n   *************\n   *************  ** Warning ** CalcDoe2DXCoil: Coil:Cooling:DX:SingleSpeed=\"COIL COOLING DX SINGLE SPEED 2 78KBTU/HR 9.7EER\" - Full load outlet temperature indicates a possibility of frost/freeze error continues. Outlet air temperature statistics follow:\n   *************  **   ~~~   **   This error occurred 1 total times;\n   *************  **   ~~~   **   during Warmup 0 times;\n   *************  **   ~~~   **   during Sizing 0 times.\n   *************  **   ~~~   **   Max=0.462051  Min=0.462051\n   *************\n   *************\n   ************* ===== Final Error Summary =====\n   ************* The following error categories occurred.  Consider correcting or noting.\n   ************* Nominally Unused Constructions\n   ************* ..The nominally unused constructions warning is provided to alert you to potential conditions that can cause\n   ************* ..extra time during simulation. Each construction is calculated by the algorithm indicated in the HeatBalanceAlgorithm\n   ************* ..object. You may remove the constructions indicated (when you use the DisplayExtraWarnings option).\n   *************\n   ************* EnergyPlus Warmup Error Summary. During Warmup: 0 Warning; 0 Severe Errors.\n   ************* EnergyPlus Sizing Error Summary. During Sizing: 21 Warning; 0 Severe Errors.\n   ************* EnergyPlus Completed Successfully-- 169 Warning; 0 Severe Errors; Elapsed Time=00hr 00min 25.21sec\n",
   "file_format_version" : "0.0.1",
   "file_paths" : [ "../weather", "../seeds", "../seed" ],
   "hash" : "708BFEA9",
   "measure_paths" : [ "../measures" ],
   "name" : "LHS Autogenerated 392",
   "osa_id" : "4fef0e0f-5396-4c55-a6e1-2cd6803db3ab",
   "osd_id" : "ec46046f-10cb-4047-b7db-be776570ce1f",
   "run_directory" : "./run",
   "seed_file" : "seed.osm",
   "started_at" : "20170710T184632Z",
   "steps" : [
      {
         "arguments" : {
            "__SKIP__" : false,
            "building_type" : "FullServiceRestaurant",
            "climate_zone" : "NECB HDD Method",
            "epw_file" : "CAN_SK_Swift.Current.718700_CWEC.epw",
            "template" : "NECB 2011"
         },
         "measure_dir_name" : "create_prototype_building",
         "name" : "create_prototype_building",
         "result" : {
            "completed_at" : "20170710T184719Z",
            "measure_class_name" : "CreatePrototypeBuilding",
            "measure_display_name" : "Create Prototype Building",
            "measure_name" : "create_prototype_building",
            "measure_taxonomy" : "Whole Building.Space Types",
            "measure_type" : "ModelMeasure",
            "measure_uid" : "ae90fsd7-a651-467a-bc8d-29d310b0f937",
            "measure_version_id" : "c6ec5c18-5595-459f-a082-09a19c8c869c",
            "measure_version_modified" : "20170519T182315Z",
            "measure_xml_checksum" : "057E8D9D",
            "started_at" : "20170710T184634Z",
            "stderr" : "",
            "stdout" : "[OpenStudio.Measure] <0> OSArgumentVector is deprecated, use OpenStudio::Measure::OSArgumentVector instead.\n[openstudio.EpwFile] <0> Successive data points (1988-Jan-31 to 1971-Feb-01, ending on line 753) are greater than 1 day apart in EPW file '/usr/local/bundle/bundler/gems/openstudio-standards-f448df66933d/openstudio-standards/data/weather/CAN_SK_Swift.Current.718700_CWEC.epw'. Data will be treated as typical (TMY)\n[openstudio.setFileExtension] <0> Path p, '/usr/local/bundle/bundler/gems/openstudio-standards-f448df66933d/openstudio-standards/data/weather/CAN_SK_Swift.Current.718700_CWEC.ddy', has an unexpected file extension. Was expecting 'idf'.\n[openstudio.setFileExtension] <0> Path p, '/usr/local/bundle/bundler/gems/openstudio-standards-f448df66933d/openstudio-standards/data/weather/CAN_SK_Swift.Current.718700_CWEC.ddy', has an unexpected file extension. Was expecting 'idf'.\n[openstudio.EpwFile] <0> Successive data points (1988-Jan-31 to 1971-Feb-01, ending on line 753) are greater than 1 day apart in EPW file '/usr/local/bundle/bundler/gems/openstudio-standards-f448df66933d/openstudio-standards/data/weather/CAN_SK_Swift.Current.718700_CWEC.epw'. Data will be treated as typical (TMY)\n[openstudio.weather.Model] <0> Could not find ground temperatures; will use generic temperatures, which will skew results.\n[openstudio.setFileExtension] <0> Path p, '/usr/local/bundle/bundler/gems/openstudio-standards-f448df66933d/openstudio-standards/data/weather/CAN_SK_Swift.Current.718700_CWEC.ddy', has an unexpected file extension. Was expecting 'idf'.\n[openstudio.EpwFile] <0> Successive data points (1988-Jan-31 to 1971-Feb-01, ending on line 753) are greater than 1 day apart in EPW file '/usr/local/bundle/bundler/gems/openstudio-standards-f448df66933d/openstudio-standards/data/weather/CAN_SK_Swift.Current.718700_CWEC.epw'. Data will be treated as typical (TMY)\n[openstudio.setFileExtension] <0> Path p, '/usr/local/bundle/bundler/gems/openstudio-standards-f448df66933d/openstudio-standards/data/weather/CAN_SK_Swift.Current.718700_CWEC.ddy', has an unexpected file extension. Was expecting 'idf'.\n[openstudio.setFileExtension] <0> Path p, '/usr/local/bundle/bundler/gems/openstudio-standards-f448df66933d/openstudio-standards/data/weather/CAN_SK_Swift.Current.718700_CWEC.ddy', has an unexpected file extension. Was expecting 'idf'.\n[openstudio.EpwFile] <0> Successive data points (1988-Jan-31 to 1971-Feb-01, ending on line 753) are greater than 1 day apart in EPW file '/usr/local/bundle/bundler/gems/openstudio-standards-f448df66933d/openstudio-standards/data/weather/CAN_SK_Swift.Current.718700_CWEC.epw'. Data will be treated as typical (TMY)\n[openstudio.setFileExtension] <0> Path p, '/usr/local/bundle/bundler/gems/openstudio-standards-f448df66933d/openstudio-standards/data/weather/CAN_SK_Swift.Current.718700_CWEC.ddy', has an unexpected file extension. Was expecting 'idf'.\n[openstudio.setFileExtension] <0> Path p, '/usr/local/bundle/bundler/gems/openstudio-standards-f448df66933d/openstudio-standards/data/weather/CAN_SK_Swift.Current.718700_CWEC.ddy', has an unexpected file extension. Was expecting 'idf'.\n[utilities.idf.WorkspaceObject] <0> Object of type 'Schedule:Constant' and named 'Always Off Discrete', points to an object named OnOff 1 from field 1, but that object cannot be located.\n[utilities.idf.WorkspaceObject] <0> Object of type 'Schedule:Constant' and named 'Always On Continuous', points to an object named Fractional 1 from field 1, but that object cannot be located.\n[utilities.idf.WorkspaceObject] <0> Object of type 'Schedule:Constant' and named 'Always Off Discrete', points to an object named OnOff 1 from field 1, but that object cannot be located.\n[utilities.idf.WorkspaceObject] <0> Object of type 'Schedule:Constant' and named 'Always On Continuous', points to an object named Fractional 1 from field 1, but that object cannot be located.\n[openstudio.standards.Fan] <0> For Fan Constant Volume 1, there is no greater nominal HP.  Use the efficiency of the largest motor category.\n[openstudio.standards.Fan] <0> For Fan Constant Volume 2, there is no greater nominal HP.  Use the efficiency of the largest motor category.\n[openstudio.EpwFile] <0> Successive data points (1988-Jan-31 to 1971-Feb-01, ending on line 753) are greater than 1 day apart in EPW file '/usr/local/bundle/bundler/gems/openstudio-standards-f448df66933d/openstudio-standards/data/weather/CAN_SK_Swift.Current.718700_CWEC.epw'. Data will be treated as typical (TMY)\n[openstudio.setFileExtension] <0> Path p, '/usr/local/bundle/bundler/gems/openstudio-standards-f448df66933d/openstudio-standards/data/weather/CAN_SK_Swift.Current.718700_CWEC.ddy', has an unexpected file extension. Was expecting 'idf'.\n[openstudio.setFileExtension] <0> Path p, '/usr/local/bundle/bundler/gems/openstudio-standards-f448df66933d/openstudio-standards/data/weather/CAN_SK_Swift.Current.718700_CWEC.ddy', has an unexpected file extension. Was expecting 'idf'.\n[openstudio.EpwFile] <0> Successive data points (1988-Jan-31 to 1971-Feb-01, ending on line 753) are greater than 1 day apart in EPW file '/usr/local/bundle/bundler/gems/openstudio-standards-f448df66933d/openstudio-standards/data/weather/CAN_SK_Swift.Current.718700_CWEC.epw'. Data will be treated as typical (TMY)\n[openstudio.setFileExtension] <0> Path p, '/usr/local/bundle/bundler/gems/openstudio-standards-f448df66933d/openstudio-standards/data/weather/CAN_SK_Swift.Current.718700_CWEC.ddy', has an unexpected file extension. Was expecting 'idf'.\n[openstudio.setFileExtension] <0> Path p, '/usr/local/bundle/bundler/gems/openstudio-standards-f448df66933d/openstudio-standards/data/weather/CAN_SK_Swift.Current.718700_CWEC.ddy', has an unexpected file extension. Was expecting 'idf'.\n[openstudio.standards.Fan] <0> For Fan Constant Volume 1, there is no greater nominal HP.  Use the efficiency of the largest motor category.\n[openstudio.standards.Fan] <0> For Fan Constant Volume 2, there is no greater nominal HP.  Use the efficiency of the largest motor category.\n",
            "step_errors" : [],
            "step_files" : [],
            "step_info" : [
               "Started adding geometry",
               "Finished adding geometry",
               "Started adding weather file for climate zone: NECB HDD Method.",
               "Template =",
               "Setting attic to Space Function.- undefined -",
               "Setting Dining to Space Function.Dining - family space",
               "Setting Kitchen to Space Function.Food preparation",
               "Started applying space types (loads)",
               "Space Function - undefined - had no ventilation specification, one has been created.",
               "Space Function - undefined - had no infiltration objects, one has been created.",
               "Space Function - undefined - set infiltration to 0.0 per ft^2 exterior surface area.",
               "Space Function - undefined - set infiltration schedule to Always On.",
               "Space Function Dining - family space had no people, one has been created.",
               "Space Function Dining - family space set occupancy to 9.29 people/1000 ft^2.",
               "Space Function Dining - family space had no lights, one has been created.",
               "Space Function Dining - family space set LPD to 0.891861761 W/ft^2.",
               "Space Function Dining - family space had no electric equipment, one has been created.",
               "Space Function Dining - family space set electric EPD to 0.092902267 W/ft^2.",
               "Space Function Dining - family space had no ventilation specification, one has been created.",
               "Space Function Dining - family space set ventilation per area to 0.705 cfm/ft^2.",
               "Space Function Dining - family space had no infiltration objects, one has been created.",
               "Space Function Dining - family space set infiltration to 0.0 per ft^2 exterior surface area.",
               "Space Function Dining - family space set occupancy schedule to NECB-B-Occupancy.",
               "Space Function Dining - family space set occupant activity schedule to NECB-Activity.",
               "Space Function Dining - family space set lighting schedule to NECB-B-Lighting.",
               "Space Function Dining - family space set electric equipment schedule to NECB-B-Electric-Equipment.",
               "Space Function Dining - family space set infiltration schedule to Always On.",
               "Space Function Dining - family space set heating setpoint schedule to NECB-B-Thermostat Setpoint-Heating.",
               "Space Function Dining - family space set cooling setpoint schedule to NECB-B-Thermostat Setpoint-Cooling.",
               "Space Function Food preparation had no people, one has been created.",
               "Space Function Food preparation set occupancy to 4.65 people/1000 ft^2.",
               "Space Function Food preparation had no lights, one has been created.",
               "Space Function Food preparation set LPD to 0.994054255 W/ft^2.",
               "Space Function Food preparation had no electric equipment, one has been created.",
               "Space Function Food preparation set electric EPD to 0.929022668 W/ft^2.",
               "Space Function Food preparation had no ventilation specification, one has been created.",
               "Space Function Food preparation set ventilation per area to 0.27 cfm/ft^2.",
               "Space Function Food preparation had no infiltration objects, one has been created.",
               "Space Function Food preparation set infiltration to 0.0 per ft^2 exterior surface area.",
               "Space Function Food preparation set occupancy schedule to NECB-B-Occupancy.",
               "Space Function Food preparation set occupant activity schedule to NECB-Activity.",
               "Space Function Food preparation set lighting schedule to NECB-B-Lighting.",
               "Space Function Food preparation set electric equipment schedule to NECB-B-Electric-Equipment.",
               "Space Function Food preparation set infiltration schedule to Always On.",
               "Space Function Food preparation set heating setpoint schedule to NECB-B-Thermostat Setpoint-Heating.",
               "Space Function Food preparation set cooling setpoint schedule to NECB-B-Thermostat Setpoint-Cooling.",
               "Finished applying space types (loads)",
               "Started applying constructions",
               "Adding construction set: NECB 2011-NECB HDD Method-FullServiceRestaurant--is_residentialNo",
               "Adding construction Typical Insulated Exterior Mass Floor R-15.63.",
               "Adding construction Typical Insulated Exterior Mass Wall R-12.5.",
               "Adding construction Typical Insulated Metal Building Roof R-20.41.",
               "Adding construction Typical Interior Floor.",
               "Adding construction Typical Interior Wall.",
               "Adding construction Typical Interior Ceiling.",
               "Adding construction Typical Insulated Carpeted 6in Slab Floor.",
               "Adding construction U 0.55 SHGC 0.31 Dbl Ref-D Tint 6mm/6mm Air.",
               "Adding construction Typical Insulated Metal Door R-1.43.",
               "Adding construction U 0.35 SHGC 0.35 Dbl LoE (e2-.1) Tint 6mm/13mm Air.",
               "Adding construction Typical Overhead Door R-2.0.",
               "Adding construction U 0.48 SHGC 0.40 Dbl Ref-D Clr 6mm/13mm.",
               "Adding construction Typical Interior Window.",
               "Adding construction Typical Interior Door.",
               "Adding construction Typical Interior Partition.",
               "Finished applying constructions",
               "WWR NonRes = 0%; window = 0 ft2, wall = 0 ft2.",
               "WWR Res = 0%; window = 0 ft2, wall = 0 ft2.",
               "WWR Semiheated = 0%; window = 0 ft2, wall = 0 ft2.",
               "The skylight to roof ratios (SRRs) are: NonRes: 0%, Res: 0%.",
               "Started creating thermal zones",
               "Finished creating thermal zones",
               "Running simulation /mnt/openstudio/analysis_4fef0e0f-5396-4c55-a6e1-2cd6803db3ab/data_point_ec46046f-10cb-4047-b7db-be776570ce1f/run/000_create_prototype_building/output/FullServiceRestaurant-NECB 2011-NECB HDD Method-CAN_SK_Swift.Current.718700_CWEC.epw/SR0.",
               "Finished run.",
               "Started Adding HVAC",
               "Finished adding HVAC",
               "Started Adding Service Water Heating",
               "Adding service water loop.",
               "Adding water heater.",
               "Template =",
               "Finished adding Service Water Heating",
               "Set sizing factors to 1.3 for heating and 1.3 for cooling.",
               "Running simulation /mnt/openstudio/analysis_4fef0e0f-5396-4c55-a6e1-2cd6803db3ab/data_point_ec46046f-10cb-4047-b7db-be776570ce1f/run/000_create_prototype_building/output/FullServiceRestaurant-NECB 2011-NECB HDD Method-CAN_SK_Swift.Current.718700_CWEC.epw/SR1.",
               "Finished run.",
               "Started applying multizone vav OA sizing.",
               "Finished applying multizone vav OA sizing.",
               "Started applying prototype HVAC assumptions.",
               "For Fan Constant Volume 1: allowed_hp = 1.01HP; motor eff = 61.5%; total fan eff = 40% based on 647 cfm.",
               "For Fan Constant Volume 2: allowed_hp = 1.93HP; motor eff = 61.5%; total fan eff = 40% based on 2821 cfm.",
               "Sp-Dining Sys-3 Flr-1 Sch-B HPlcmt-south ZN NECB System 3 PSZ requires an economizer because the total cooling capacity of 78043 Btu/hr exceeds the minimum capacity of 68243 Btu/hr.",
               "Sp-Kitchen Sys-3 Flr-1 Sch-B HPlcmt-north ZN NECB System 3 PSZ does not require an economizer because the total cooling capacity of 17246 Btu/hr is less than the minimum capacity of 68243 Btu/hr.",
               "Finished applying prototype HVAC assumptions.",
               "Started applying HVAC efficiency standards.",
               "For Sp-Dining Sys-3 Flr-1 Sch-B HPlcmt-south ZN NECB System 3 PSZ, ERV not required based on 0% OA flow, design supply air flow of 2821cfm, and climate zone NECB HDD Method.",
               "For Sp-Dining Sys-3 Flr-1 Sch-B HPlcmt-south ZN NECB System 3 PSZ, ERV not required based on exhaust heat content.",
               "For NECB 2011 NECB HDD Method:  Sp-Dining Sys-3 Flr-1 Sch-B HPlcmt-south ZN NECB System 3 PSZ: DCV is not required for any system.",
               "For Sp-Dining Sys-3 Flr-1 Sch-B HPlcmt-south ZN NECB System 3 PSZ: Annual occupied hours = 5421 hr/yr, assuming a 0.15 occupancy threshold.  This schedule will be used as the HVAC operation schedule.",
               "For Sp-Dining Sys-3 Flr-1 Sch-B HPlcmt-south ZN NECB System 3 PSZ: Because the system has an economizer, it requires a motorized OA damper.",
               "For Sp-Dining Sys-3 Flr-1 Sch-B HPlcmt-south ZN NECB System 3 PSZ: Setting motorized OA damper schedule to Sp-Dining Sys-3 Flr-1 Sch-B HPlcmt-south ZN NECB System 3 PSZ Occ Sch.",
               "For Sp-Kitchen Sys-3 Flr-1 Sch-B HPlcmt-north ZN NECB System 3 PSZ, ERV not required based on 0% OA flow, design supply air flow of 647cfm, and climate zone NECB HDD Method.",
               "For Sp-Kitchen Sys-3 Flr-1 Sch-B HPlcmt-north ZN NECB System 3 PSZ, ERV not required based on exhaust heat content.",
               "For NECB 2011 NECB HDD Method:  Sp-Kitchen Sys-3 Flr-1 Sch-B HPlcmt-north ZN NECB System 3 PSZ: DCV is not required for any system.",
               "For Sp-Kitchen Sys-3 Flr-1 Sch-B HPlcmt-north ZN NECB System 3 PSZ: Unoccupied fan shutoff not required because system fan HP of 0.66 HP is less than the minimum threshold of 0.75 HP.",
               "For Sp-Kitchen Sys-3 Flr-1 Sch-B HPlcmt-north ZN NECB System 3 PSZ: Setting motorized OA damper schedule to Always On Discrete.",
               "For Fan Constant Volume 1: motor nameplate = 0.4029918740937306HP, motor eff = 61.5%.",
               "For Fan Constant Volume 2: motor nameplate = 1.7572329710660817HP, motor eff = 61.5%.",
               "For Service Water Loop Pump: brake hp = 0.0HP, motor nameplate = 0.1HP, motor eff = 70.0%.",
               "For Pump Variable Speed 1: brake hp = 0.1HP, motor nameplate = 1.0HP, motor eff = 85.5%.",
               "For NECB 2011: Coil Cooling DX Single Speed 1: AirCooled All Other Single Package Capacity = 17kBtu/hr; SEER = 14.0",
               "For NECB 2011: Coil Cooling DX Single Speed 2: AirCooled All Other Single Package Capacity = 78kBtu/hr; EER = 9.7",
               "For NECB 2011: Primary Boiler: Gas Hot Water Capacity = 75kBtu/hr; AFUE = 0.85",
               "For NECB 2011: Secondary Boiler: Gas Hot Water Capacity = 0kBtu/hr; AFUE = 0.85",
               "For NECB 2011: 200.0gal NaturalGas Water Heater - 200kBtu/hr 0.807 Therm Eff; thermal efficiency = 0.807, skin-loss UA = 21Btu/hr",
               "Finished applying HVAC efficiency standards.",
               "Started adding daylighting controls.",
               "For attic, daylighting control not applicable because no exterior fenestration is present.",
               "For Kitchen, daylighting control not applicable because no exterior fenestration is present.",
               "Finished adding daylighting controls.",
               "Total Time = 44sec."
            ],
            "step_result" : "Success",
            "step_values" : [
               {
                  "name" : "building_type",
                  "value" : "FullServiceRestaurant"
               },
               {
                  "name" : "template",
                  "value" : "NECB 2011"
               },
               {
                  "name" : "climate_zone",
                  "value" : "NECB HDD Method"
               },
               {
                  "name" : "epw_file",
                  "value" : "CAN_SK_Swift.Current.718700_CWEC.epw"
               }
            ],
            "step_warnings" : [
               "[openstudio.EpwFile] Successive data points (1988-Jan-31 to 1971-Feb-01, ending on line 753) are greater than 1 day apart in EPW file '/usr/local/bundle/bundler/gems/openstudio-standards-f448df66933d/openstudio-standards/data/weather/CAN_SK_Swift.Current.718700_CWEC.epw'. Data will be treated as typical (TMY)",
               "[openstudio.EpwFile] Successive data points (1988-Jan-31 to 1971-Feb-01, ending on line 753) are greater than 1 day apart in EPW file '/usr/local/bundle/bundler/gems/openstudio-standards-f448df66933d/openstudio-standards/data/weather/CAN_SK_Swift.Current.718700_CWEC.epw'. Data will be treated as typical (TMY)",
               "[openstudio.weather.Model] Could not find ground temperatures; will use generic temperatures, which will skew results.",
               "[openstudio.EpwFile] Successive data points (1988-Jan-31 to 1971-Feb-01, ending on line 753) are greater than 1 day apart in EPW file '/usr/local/bundle/bundler/gems/openstudio-standards-f448df66933d/openstudio-standards/data/weather/CAN_SK_Swift.Current.718700_CWEC.epw'. Data will be treated as typical (TMY)",
               "[openstudio.EpwFile] Successive data points (1988-Jan-31 to 1971-Feb-01, ending on line 753) are greater than 1 day apart in EPW file '/usr/local/bundle/bundler/gems/openstudio-standards-f448df66933d/openstudio-standards/data/weather/CAN_SK_Swift.Current.718700_CWEC.epw'. Data will be treated as typical (TMY)",
               "[openstudio.standards.Fan] For Fan Constant Volume 1, there is no greater nominal HP.  Use the efficiency of the largest motor category.",
               "[openstudio.standards.Fan] For Fan Constant Volume 2, there is no greater nominal HP.  Use the efficiency of the largest motor category.",
               "[openstudio.EpwFile] Successive data points (1988-Jan-31 to 1971-Feb-01, ending on line 753) are greater than 1 day apart in EPW file '/usr/local/bundle/bundler/gems/openstudio-standards-f448df66933d/openstudio-standards/data/weather/CAN_SK_Swift.Current.718700_CWEC.epw'. Data will be treated as typical (TMY)",
               "[openstudio.EpwFile] Successive data points (1988-Jan-31 to 1971-Feb-01, ending on line 753) are greater than 1 day apart in EPW file '/usr/local/bundle/bundler/gems/openstudio-standards-f448df66933d/openstudio-standards/data/weather/CAN_SK_Swift.Current.718700_CWEC.epw'. Data will be treated as typical (TMY)",
               "[openstudio.standards.Fan] For Fan Constant Volume 1, there is no greater nominal HP.  Use the efficiency of the largest motor category.",
               "[openstudio.standards.Fan] For Fan Constant Volume 2, there is no greater nominal HP.  Use the efficiency of the largest motor category."
            ]
         }
      },
      {
         "arguments" : {
            "__SKIP__" : false
         },
         "measure_dir_name" : "view_model",
         "name" : "view_model",
         "result" : {
            "completed_at" : "20170710T184719Z",
            "measure_class_name" : "ViewModel",
            "measure_display_name" : "ViewModel",
            "measure_name" : "view_model",
            "measure_taxonomy" : "Reporting.QAQC",
            "measure_type" : "ModelMeasure",
            "measure_uid" : "f4669f10-fda5-489d-8e1c-7ca3c2d40378",
            "measure_version_id" : "f4975c5f-7c25-42a2-927b-02d99b4427ef",
            "measure_version_modified" : "20170526T150340Z",
            "measure_xml_checksum" : "1E1F8B97",
            "started_at" : "20170710T184719Z",
            "stderr" : "",
            "stdout" : "[OpenStudio.Measure] <0> OSArgumentVector is deprecated, use OpenStudio::Measure::OSArgumentVector instead.\n",
            "step_errors" : [],
            "step_files" : [
               "/mnt/openstudio/analysis_4fef0e0f-5396-4c55-a6e1-2cd6803db3ab/data_point_ec46046f-10cb-4047-b7db-be776570ce1f/run/001_view_model/report.html",
               "/mnt/openstudio/analysis_4fef0e0f-5396-4c55-a6e1-2cd6803db3ab/data_point_ec46046f-10cb-4047-b7db-be776570ce1f/run/001_view_model/report.json"
            ],
            "step_final_condition" : "Report written to <a href='file:////mnt/openstudio/analysis_4fef0e0f-5396-4c55-a6e1-2cd6803db3ab/data_point_ec46046f-10cb-4047-b7db-be776570ce1f/run/001_view_model/report.html'>report.html</a>.",
            "step_info" : [ "No changes made to the model." ],
            "step_result" : "NA",
            "step_values" : [
               {
                  "name" : "view_model_html_zip",
                  "value" : "eJztfWtz3Day6Pet2v/A1am7GtnCCADBlxynKraTbGrzqjjJxk65XCAJSkxGw9kZypKc4/9+u8EX+BpxbI9j59iV2BygAXQ3Go1uoAF88o9H3z388cn3n1vn+cXi07//7ZP6XyVj/DdP84X69OdUXVnfZLFafHJSpEDWhcqlFZ3L9Ubl9w9++vEL4h9YJ3XOUl6o+wcvoOQqW+cHVpQtc7UEyKs0zs/vx+pFGimifxxb6TLNU7kgm0gu1H12bF1u1Fr/kiEkLLOy5k20Tle5tVlH9w/O83y1OT05ieLlb5t5tMgu42Qh12oeZRcn8jd5fbJIw81Jfr5Wav7b5mTtsfLHRbqEhINPPzkp6ttS83wtr87SXNd5sY6zLGxXqK7lxWqhNifwGylcZ4vNyXfrMM0flr+mtrSNhljm5OwyPaFzB7/n8L0LEduqPtvI1QmbM3fOTn68Umr5dZoPc+ikkokwi290a/nNQln5zQr6OVfX+Um0gSJ//9v/IOCGXK6sP/7+N8sKZfT72Tq7XMYkyhbZ+vR/4ji+p3OydQzdvJZxerk59VfXOjVON6uFvDldZkulE1YyjtPl2Sm1nNW1xWgJl61klOY3p3TuOwVctgEpypanMtxki8u8KL1QSX7qVIUQTyIX6dnyFDN02kuSLmN1fcoo/HwF+Gs0SSjXJQEazVMGjUO9aWz9j+d5W1oMszzPLk551abGoP61ylIYCGuiXsBo2JzKxaLbKkFBkulSle33GdKuwkgfQidfy2WZfq7Ss/PcAjHaWEpu1HGRmWTri1ZitjJ/Iv7N7wLbOXAwWyvSVF7gumtj1j/SC9QPcpmXFTdsyNPo9zERqnqgaOSUOSV3tT455TWv+wzptAHyYGCOyJ2us1zmamZTGquzo3utTJKt07N0eYosqgWo6qB0uYBeI+Eii37f0iEdEgyWDXGoRLlAqkC1IhoE0mCfdXLH+iK9tqC4Fa/lGaB5Zl2dq6VVlI2tOyeDhAYVnUY701jEPaMo6ApUCI0egq+//+0FjKJs8xy0lrTuW38c4NyAPw5O/zh4odYbIPvgVMzt4wNUJAenB9+Fv6koPzg+OFMwAmSerTFxpZaP88s4zSAjvEwXqBAeQ97NtzDNbA5Ofz14UKZaOtliANhJ4gfPoDBKEaQ9yK4RBVB0vxycEjZ3PJv6DmdBEAjhKcLcY8x8ApnB3HWpHXDXDjzBuAuZns58egDKh8KnvIZKOJ+71Pf0zyftnwDozn3mHx8ssuz3z3KAptX3E+P7qfH9w8EpKGVbuCyg8LdjUx68eoVsyYCH61RT/cfB5WUaA4OYE8ZJmDiE+6FNROKGJLCDiMiES5vRJLK5e1Dz+MuijhtIMfoCxpuulLG5TcVxgTFh/twXx0inPaciOCaasMBMwc92IXvuuQFwG3TEhVxgpfDj8kX5kciiIXoM5Y45/G3D/xxy9PwPhB+D4bBJQ/zO15fq+CCSm/zxuYyzqyplrSKVvlBVYgLNQGqcXUKpx2ms4gIQWNYwyY+5EwecxB4HJlHmkcCnEUk4Zb4IIxbHfCqTSi6UHICeEsI2eWKk4P/Vb4N5ZdIOXAIeHdv751KYiNgLAhJ6SUSEz0CjCaoIDyLPj5kfOCyYyqU+Qwb51udKl3HvHZdAG4jEj0Oi3DAhwnMoCV3bJ46UEZUyoaEXvd6A02OnwyfkRDul/DUwVt+7YcdjymPJE8JCJUE3hQIEylckobGEcRe51BNvopsGGdNTWFPZsnd2uDRJEuXHRHEGkmNHjAQJdYlNA99NPFcpW+1nfBnC1Nbe793ocrkfebZrEz9IPCKk7ZIwcEAlBYnDFY3kDqOrP3UNCoypg4xv4/d7xyWf+j4Xno9KGv4KXZjvPcoIlSIJPJkEgZI7zmcDc9WgKLF54HNIdIwByObU9Tppuj5De5UwFH4MiWW7dg21K9fhb1GqNgF/O/CvC1/Fv86xp6Hd8l/vHYx3jwnoFJgkgigB9adUQiTzOFGBzSOwyzyRsB17aZj7Dc+2cdvspfdPomFOCCgTxE1ch4go4kRSYJ0NPkqkXN+36WQzth69fX2nf7YYViQY3OoabgZAwfZhW8/smT1ILteyi/+CBO+9N0LQIJEroA9cnLg5c0jAqUNCsJ9j1w1d1wt36Y0BjhtyPMhhs0/eO2kNAmknoQM2oJIcpFV4JLQDRqJIOInv+HYY0/3MUre4He8dp2TgSzvmgnheqIiIY5/A3CQIDGo/FCFnoUxeZ6bq28U6hc19x2nEzUgppYked7SD54hubktdFPlVfR/8nBQGYcC9mIMFDS6MCKlPwJhQxGExp7FPVWxPHtl9bnfZ1edvrz/eO4kNQS6FAAs0jGLQfa4HtmhMBeGRL5yY2YIHk9cKhqeKvr8yaHu+pyM68iULohgYggaNiGUIXkzigwKMYhbGTuDGkyVoyP/tjMDeIH9v3LkoEH7MAo9EClS/sMESlxwscT8WXkxjaotosjs3XeWPm+vvs8MShQ6NRCBJFMoYvBYHDAo3EoR6PlcMhMaLdlpa2r6y1vNBTJ3/3vEmcRImfQYixMCiEDEFb5eD6omiULFE0NiWOykcU5kM+LYf4JJbEvA4ES4wRyiQnhAER7rAq1C4vhd53IvY5HWk11o4edOlpXfHqcS14yiCSd2XLricnkOkZ7vgd4Ih79meeL0l3BFr60MySZ/hfkyu1mmBSGPKc+rCSHOIhwuVwvbAXXfhL58ybqM1H4VooGJQA0D/tIxVki6h2pqJ36jN+QO5SaNvyuohS++h4TaO53ngPAFFgMrBKTfNDDC0ZOTFRNocDGPpuCR00OtlYCgn0rcd223a/VZz0GjBaPz782x5tq1xeRGmapmbSeoi3WyAb3rbabNS0eVCthE+T5dA5wZ45QBIueWu+0RvBq7kWldZMvwqXatkrXEtU/oU20kA9XOb2BL8SUGB7MABTisaKuEpFXrhKMXPP7/OX4vl1ERASuFG0geHloIuYaBLfGaD/xYyxqQLlioXowh8tcynsp0x16dttpdJ42wvAd4S21lrrTCwRUATUJkezjE2UO0HFMw3jyU+i0Iug4bqLxYZUDGFUB+XBcB4a+isU0bIrPP3IFzKiViSJDaSBcOJCUl84cYktiM3BhsjivQOn0llX6beW0pNKXZiwaiA/uROQmFGTAIiJdAccjd0ExEnNk26lE4WXu64Lvg+pvDWSWPCWwPsQXhVxKPA8XF3Owad4UgFilnExBM+C10WBFFkdOt/5GKibrTB1qLM7NImaYzOGmAP4osGjh2DL+HxBJ0qBRaOLR3i2gHzFfeShIk2nZOl972glbZoZSLxEkGAMOhT1xfgakcRAR0VgosNHNCLZyatk+XXEU5AWUt+66QxWmuAPcivC9YFExFMcioC5UtBkkPb84ntK9+z7dB1uGpo/SHLkocqXaTLs2nkUipcR7TmmjppjNwaYA9inDixS4VtE6AbplkBNPtMcUIFBw8PbHYZD5M7XZrfB5Jpa4/bga71AxIIRxDhBSEJFHhvCizHmCYs8kU8TPJkoba55zpuy5Crk0YHcAWwB6HmMF4C6oD5phK0KEBZ+Tbl6LAKMCZEJJVvDOB0iab5FEpdz6ZCmJqqThmhs84fI5PO3Q6hhd8wRZodXLp2QZDBaAWbIvIiXOCxicd8R/jK8WOqunROFuT3gFZTjBVzAk/YGPbDAxi5DHo34T5hVCrX9uIo9niP1ulmhQs2C22bFVXSqFlRAbwtck0RpipRMZOcKBkFuIEuwBcBryR0AgnmYgLD2GvIfTTVJgaEXQZjr62dyqRx7VQC7EEhO0w6kQPTrB9JiiIM/iZ4nQSmHplIFkUes9t07qKJ/3xa24ZxwBgPFXGCCCYfFeMWsg+Ongxj7oUx5Ynq0LqDCvZhBgnaKrhMGlfBJcAeVDC1g4TijqziIYzZCCTZj2NK7CBWXiBs8AMMWh+nuV4hmWpXiEB44DUa1NYpI8TW+fuwjWnggrWPqwU4w9oUHFgBtDIJpoaiwAfXG6R1sij/+fSacsxoADMot8Egtj3weUKOa+UwvSZgU8RKKpkEw/RO18c29QPHbenjKmlUH1cAexBnKW3OhcOIzWOMZ4rB/Qlsh4D3FykncD1Ojdmniu7eRaQ9wR3meQbFdcoIwXX+XpbCPLCLYxemV9xjBEVBQi9A8iPfkTAvRZEcpXeyWP/5NJti7VIWR0izDRqK6B1W6XgOcbjtROD0hcx0+7o0TxZtwakXeC1To04aE+0aYB/GchDogBmSeBRXPZVHAunHxGG263huYENnG6MZWtxJVTsUTHHPNCPrlBFq6/x9rMKFzMMJnoQixInXDgl4fKCqmSsjl3I7YHyY2MlC/ecTbAo1OLZM+mBucJ+jzQEmpB8HknAwt+w4VrEj3RGCpytrmOa8lqfQJI0q6wpgDxLNHDtRIkyICzYkKC/pET8AB9iO7MS1beo5pvL6Cg+spdn6e7nO9Vmnx5dr3PmZaGMKygOnZXfVSaM2ZgWwD3taJjbHCMXEEaC4pfCJtCOwwBQVoR14Ify4nfYdbOz3gH5T3hNfgMirGHRYFBPhcRjgzE4IKHbmOBjtb/oTo/RP1+aUgfPNWtq8ShrV5hXAHmTfw1AFBYaKUsoF20wIcBkVIyHYZR4XEbPNJYEHeORMrm+e7yLzoCNd3yC4/D1CbZm7B1EPQ/AUmatIjAsfIvBcgpFRJFB2HNFA+E7CB0j9LE5lKPM0mtbBrmd7Xntxuk4a3y0rAfZAdSxs6YeuT1RoUxzgIQk5ntFQQsAsFoVRFA918GqySnsf9gdNiiPb5bbwfcLiGOwysFbw7AX4HEGIfcxELL0Bir+7zGNwoTcT9ZhnCy9oORx10qgeqwD2QbQMKffAs4oTF/S4EGCMKk+ShCXMBk0WUya3EA0DejmJcHBNbb81nOuUEbLr/H0ItxvGoR0rEvqKExGDhPt+yEjsRoJ7PPBB9LdRjct+0xY3beoGpohXCWNLm2X2HmgWbhxK5ijiuJHuaZixY7BbKGOBZDSyg8EBbfb0ZLKhco+2fI86ZWwdocrfR2/bKhR2APQqHuHJYEUkBdOFShB6pShoMjpA+Zf6uP3krUXX7m0tFklbthYLgD2Q7CuHBmFESSiVIgIMVPgCvxr0NpWhy5RNxSjJSQRzdJ6tL1R+nk1kAKWOz73OblSZNL4GWgLsgQEg0zaHaRqjmXAhJQH7JIxcwgIQBh4mkW2zUQZsFjJcrdVqnUWAVLaWL9Rank2e1lwK/mx7WiuTxqe1EmAf0u/51LFVQBLfw0g4x4Vx73ug+oJE2CKRQTI0rQ1zIsrWk9ng+DbnbTaUSeNsKAH2EljgC+7bDKZzH+wZxjiROEAYeOIuSxw3cd3JbFgBtTA61MTNEKALpvCgw4siaQsvCoA98MIVjhNwHhDuMJgKIrDyQge3vFzJQlcmLBD2KC9CuVEX0OLAALmaHnZi+1zQlrqok0b1ZQWwB47wgNFQhDGhvgPqQuIUwSWYvC44OQGFUSKHbPxbOZJMjiID8gLKeIclZdI4S0qAfXj4PIldARa/JzgGHGMErQJfH8MypXQiIc3wqgksuVzBsNlFRGCgBl6HH0XSFn4UAHvgh0xc4AhYyo4D04oAmwGmVAePOnjM98HvT+i4Hh3ixyK72okfgtle4HRMjCJpi4lRAOzDnowd24ZhQaIwsPHUR0ICFjnEd8BtYInANd0hezI/xztvYhVlKknSCEmZ5jsJJkR7CahOGTMqq/x9RPjYgWARU8TjEd6kAsZVGIR4MU7ouwnalMnQfGKQv4z1UtDmAm+Vm2plgb3ki7aVVSaNW1klwD6sLC+OPRucCCfieERMwPQaB5SAeUWjwI498KgbJjwEYvP1ZYRUP39QjghLB2bi3Xh13sTxQIXH2vsbddLoeKgARnmBlxm99ohQ3Ka4WuJTgcHUMgabkyviKt+F/wXwIxnhxsPLTZ5dpC9VbH2hAC9AobgOC8XkPp1zTq38RbqBTz/wrXyTLfDT9qYaIDywRWdxqUwaN0BKgL3wymV+qHyHEhsDxUQMdogUnBE/YVwGUoHzH9/OK8Dlv5eqJTzWH34YKZiiIoLLJmDwujYJPBoR1wnAxxehAr3zysozzVsoJJeRsrLEonPm8mn8hNlQCLc1V9dJo6uxFcBe+Bm7nh/bCSMew2sDHBtm60S5JElsV3Aas8idIHuD/GQ89GOHSqJsvA2JOSDWrm+D5UzBoZaOilk4xE8+n8ZN2wZBs01m1ilja71V/n5YGdkel7FDPAePDgUU6GUqAhPZU+BIu1RFaoSVP96s0kgurK+WG8AUL5z7RuXwG2NsrB8Im2u7esJqGaU2C8yprk4ZWy2r8vfCksgNI30Ngh/gEngIPqTPGSUO+FRRogI/VruypL6ZDiNBgTeczgWbagm5fhCwtiVUJo1bQiXAXviTROBD+r4grpfgYXIfnMsEvCr4nzo8Yr6k0a38KbaIrOkHTzh3begAU0qqlDEpqfL3wgUn5H4SSgXqVt/I48JMaIuIMOaDDSJsqV5bp3NX+HEESjxQDEOBBDSCAalCCbDJo1hyroZ1OrjRE3W6E7jdHbYqaVSnVwB74acfu66fiJgwGTIiYJwRSeMEOAt6VwQisX05wk88LGDVO1CvYV25nufYvt+2GMqkLWfmCoD9jDHP9lgIkw+LMaQCfFDiq8gjTmI7XuzjUXM2dYztdLaAgZYDU8JkRZ00xooaYC+sCFniS4a3EgZ4fs/BHUnBXWLLmPqRx8G0et3JHhUWZb5L3ABljlOPSEgjQRQyaYexiqX/JpM9c3GPyWsfxqySRgWrAtjP5KY8O4hjQVQgZRHd7uMxQRhqEUz3rtM6mnLL5PZQrlcKP9x0aT1eyHAHfY7LwIzanYOqZdKWpeMCYC+8AZ0dBRJjTMF0BQcPdxR8N4bZOgxDO2LUMaPhW7z5CZSv8K3H//ryIX5R61G4sH5QCXlkPVysLffi4oTZFxcTQ39amohvUUJ8X/rHln5gByHef6LXf1yXBLYHIwOmNSmFoNSnI6woXNw3UMfv20zvSs/h3I9IHNqgJaIQVBEoB+J7IWUB7rb4Y37/Dp6uEKzydLkXTFTWgtrUaQ2hOmlUWVcAe+GVhCnctVFF+45C29mHWdymRMWUBhFNYvgzdd6afP4icIPAsU0Hok4Z4UKdvx+BccIgijklNMLVMhumFfD0FVGSx17CQMVG7hY9YjuVHoEv1CNfZ59bM8XJnB1ZP6bLvFYn1mfpRGXr2NQXrOXD10mjJyQrgP1oGMeJHB9XVLkHTHIDjwRJEJLIlaESju857piGqSTluxdqjW8PVB4nn9NJ3BAup0ErFqdOGVtbrfL3wgoWBlLQAGYbVcgLOpyhR1jAme+Evu8m2+Ydp5EXZsw7taS4OwiKDyat7Zi6t04ZO/Re5e9HSmzKWRSC7wOGLwGzF+xg4A2IipIRlz6jkTPZXPn8utQs38jNplyK/QEvH3SnLVSA+SFgKugEcZVJ4yZLCbAX/tDI9pT0QqIcH3wlKjH0gcVE4ZlBijFFzpgvvsPcpD/LucmeZvoGjAauMBes65QxnVzl78eLCMB1Dp2IJAwdKkfikThGSewC/7jvgLoZs3tvXTK045D53CNhInV0MAOzMQJzgSY+pWEQB+7gkuEOS7DgE+ASVMePKJK2+BEFwH50lvR5bAcuOA7glopAOjAwKR4J9vGEgwP20phR1JvodzgrzOz2abxtB/H2Nb0z8BKoL8E2dnCvOBF4QJgHxGVchjxinjJPar2jlR/ui4mWgGsz6rciduqkUUugAtjPSpoTgI0YRsSOMT4Rr8IIbMGJ7YL77SbMY+GYuXQbP6NEv4ThEI+i6S4DENA4SkjkJ1ESJrEjxaCDD/ycuDzreAEHkW+xs0oaZWcFsB92UmCZB0KpHAzWjxM8OOkAY2nkRgqMcZ+PiWe9TalX1HZ23Dzftj3H5EWdMnbyrMrfDycCFUSJJ/GRBlDMFETM58KHgQo8gs7nTjImWJVu+uJyvUwRubOJIc/6IiraMRHKpK3Xb22N9XkTLqiQujRxQfxjrm/u5CR0I5ijElsEUYAu2W2G9pgJpcUELCg+d6YZBeB4cmpal3XKmFFQ5e9nMSzxOWUxJ54fgXXJwWUNE48SMCtZkID42Op267KaxHaIbXF8h3fCZ8uk8R2dEmA/AyXBy6XAysalDph2gA++B1Zk5EQicmCmdx0xlQ/1qZ8PNbAhDj0ZezIBeyZWoDW8GITC9wnlIlZ2BKle+BZM6kBUJrU90aR+DwMbPMd3VRLbxA/xogkvtEnoMEWiiNtuEoBT7xhr8z+eK7xc72m2VM8fr8i/0zzC58oe32yIDe7YmjDrcXROHlj/+n4RXeRkma3zc+vpt5M1L3RRhztl0hbNWwDsZzEsdKiXMJvEHLcIYx/j5wJFaOh5UkWJkA4f5c4jROhsnDmb7HIn5jh20PVcy6QtQbkFwH48e+YkUnEMKcPAAxHhtYx4/wxPlBt5Xih5OMocmePKMvKGat5wzRtiXVYXdVqk4hMGce8iQ+/Z7O17giZO5BPH8/AKZbCLA+VL4gdu5CrbiWVsbIvqA2mgklVxNM364nJZWMIt1uzAi7d+keib8II7uEsF7pAU+Ogdc8FPQsfLVzB92XhfhGITePFFlsUWxqbKQj1/qOxwFHcjWwYkCX0br1aI8PLLhMRg5CY2i6PWiexRdpSKhliJvEgXN9Zml0ON7xtPOA1hsDgxSRI/AItOOQSYo4hisYppGEcyMM+6mS9LPh94UXLKZh1nzHVbkdt10ui2XQWwn0nZBoXh4rND0rZxUnZI4OFVQbbvKDtgTCp3Ig8+sG3uZ1C8eE70tJmEBRVU2glRPgUTJfAVPuwQEjBbgli6XuD5BpWPI7DbDvSl0ev0Gt8q0BdUF5dVD3xBi9E5sAwQNK+XDiVeqQJq2gkYx1BhvObZDYkrcGPIE55vBihegaVI1lmWtLl9UD/+eXMw+cXP6rbrg8m3UO5AKr7S/ai8MvxcLmO8onsqYgO0borz8T8WJLevwTQXH74tTe09r8NqxVe2pQ0M7I7G7vi20qOvZ31sKv37raGPxyfo3qO3xlA1BicYgSj8VcT9wyrOHqCNo9pjUMXbu2Xtt8L9q+zx5eVigR2ULiMAXub/SfPz74qS5WO+9bi8XH5+vcqgnzXF5S99jfpVuoyNvP9UP3WmIRiVtimRbAtJWCLaAdp2nNcUmU6xd7vo3whWB423YerWwtape7J92BK/Lnu3zxjmwwRUCc+Og4Bw1Ah4syPBwG2w9F3uu8IGxWhYbIUlosP5nn+Lvh/5/vvPLvPs4VoBBvowyVYNOe25X0NDTrxn+o015DTEduJCW3eWi08DSnNsncpUdqUjPqbudvHTb9FyA6b3BEXHtiu65pqVSXqux9/Jim/qU8lbVWNxW2lbM36bFTdLdJTit1mptMb1YdmbtynChkVT9d/o+uZUvfVaUjNVXd0mR7toLNbSWB61ZYQnxnmcKCJshTeUK0UY+Nk22G2J49lbxupW/TRNev4E/TQNsS00v01tVNQ/pox2WBa7RReN+b1/vkIaVPhTVdS0ueajinpNWZqqoSZJ1+urKanAxPQi3JVwKAbFJ+DbQTd7ic8Ej0NfmM+7KDnBwZz4wv27dzAnIjZA60cH86OD+dHB/Cs7mCFnMoxFSOwAF58i5ZNQOT5JVORR4ftc+sYOvjY5b1eEMd5oyRPCQnwGOwkFmEO+IgmNJcyhkUs98ecowmmIDRH7URN+1IQfNeFfWRN6katix+EkYGgR+iH4ikkgiMsSGQsPXysydgM1qURf2ESgysrjGlOJLk2SRPkxUZzhc5mg5YIE70elge8mnquUrdoqceL7g2+qEicitpXqtm6sTjBO8V4r2L+YOns9/7XRFRNd1Ymv1r5DV7Xqz3fgq9YHZf9PKCceOTGMSJ/IKPSIcBknoLcdMJA8L3SEF/DI2Acolw4nLqu53I9AbGy8v9jD1wdcqNsJ4K8EzC4ayZ7f+o6W1SYito3oqetqe46D/wttFvwlTbWJS2x7tNHe9KDFX3xXgca2YBKfm7Px4vEwxmN6XBAuXTeIKXVcNbKr8Lnc5Nu0n0/ByRX6BhqGV/+6EUyilBEqRRJ4MgkCJf8U7TcRsXGS30Pd9+FvTXxUfx+0+vuQdyxCvAAeTECur/GJqQBjMFDEU9QTru1LxdS4Png+dEa0rQk9JkC/hAkJogR0rMIASOZxogKbR9A7nkhYWxNOfNH2TTXhRMRupbzjp6bXKq7ztuvFnc93f1R677/Sq7r+3ai93a8I+D+g0xxFFdgzAXE8GeBrYEHx9qzyYD6gKpTCvH3BHNn/UbeYdQmNA8oEcfHZMQEmGdQMKsQOaBwp1wc91Yn2fVdm3TTExkn+aNZ91HAfzbq/jAoM8NZAJgXYcXiFogMOXyDBuLE9yTneGp+YJx26+mCCWReCp6hv45Uubnpy5pAAn8AOY4/H+o1VfRz33Zt1ExG7lfKPZt1HpffRrHufdBpYbr5g0iaK2gJ0Gj53GvuURNzxQuUEHpXGap25qfh7szg+ps+CQNpJ6ICRqCQHA0p4JLQDBtpJOInv+Haor+N491upExHbSvXHrdQ320qtNoF230sNeJwIF58uUjERYSRAWqAvQ+H6XuRxL2Li4ONe6l9hL9UDq9MGDUU828dbjWwPr0SMiEuFskN829J8udW0Ox6jyt2mm2TgSzvmYMyBniMijsGYU2DbgWfnhyLkLJTJn+J1TkRsC80f3c6PFthHt/MvY6IliedEuIOqH7gVEq8gwuf7FOVKMdePFRvZUNUKYYrfGYQB92JOGB49ECH1QbP5ijgs5hSsQRXbf5LfOQ2x20n/6Hh+VHsfHc/3SauxxHMFFQE+5hYWAf6+H0YkcJTjU8/1w2QsYuy2DYUQ7CQhXJvgLbJEuJ6N16Dg+w6+cGJmCx78OYfjJyK2heb30LT7GCT3Hiq4/zN23QcaJCc4GC+c2SQK8BV74btEAr/0NdjKCyMWmhcXazV+61muyJcsiGJQJxh2IWKJTwckPgntKGZh7ARu3LHi3tFZromIDRH78SzXx7NcH89y/ZWX+FyJryiFLqF4GzVwKcYXNh0SMWUHnm8LahuasGUT3RYvHAXCj1ngkUgFDB8yxztp8ebIGN8UjKktos5JrndkB05EbAvNH+3Aj3bgRzvww7cDuYNHWN2A0AjcQsEFBatIUZLY1OVR6El74AqmgYcnO4ovdGgkAkkifKpe+I5DAjcShHo+VwwMLi/q3L70jvZdJyI2TO7kDdd9vzn811rh+3KNie+N2tv/LmxN8NvScW/8hvX/geW+mFPHDtyEeJ7AN7Q8ToKYxSRmScwin+ELW32T51ZNlzgJkz5DleXokxYBCXkscR9CsUTQ2Jb8T9F0ExEbofe9VHUfuIH3Uc99MHruAzXmwJCjgaIe6BKhB75HAhvGfCxAvUV24rmJ1x/zg0/Wd7TctIind7+yNxGxUYp3XN7rRUMZNf11FNWOcXTD0YkTY+kmBkK+w1i63Zbv3kJEnTH+/uL6SbjK5SEFX5wzF9fhbeJTMMSYUMqVEQ1Bt/e8rynqadrlNn+CepqG2BjB+9FOH77H+AYKKq5vopqooCZeevVRQX3YjuKzV6/u/f1vL+TaWqtlrNZqfWxt8H2aY2uRnp3n5a/nxZM3m+qnis8U/ChSq1+NLDTgoYx+r36VDa3UGp/oydMX6iFguZZQD2jt7GwtV+dpVKWZYNkyX2eLTQewTK2qXWfYyrFVqTsAh/RUhgtVgsSgp77IFjESCd/qx/SiqruE0I8NPZDr4/oL82W6VEbSv1TBmer3f9I4Py8ruMhAIT7Krpa/HDffT6r21/Lsl8e5XENh/H6ivyGz7AF5E8kNIG/WVX6fKxlvflqVv1IU0Q1Qq2LoEbXQX88rwgeSnmM/1A2dqfwxKPjl2Rfr7OLrDIQeBUKeKeu+lVTiNvtd3QCaKpGXi/xnubhUR9Yff/+bZcHcU3xYwF9IhkILo4451P5Vri6w/NG9Ai5NrFkJe99Cx+2orMACscsv18tWO2WhVwq8ty7cCxMA/3llRRKMglmF3XiNAP7K4MCDLFt8ePQ31Ryidj08eiu8AM9W5h8eM8BS2yiNe1HhW2DGRuXbefBimPgW0ZuG6KrAvSGUOg3nMCI30KLOK9Txg5tT67CcyiycFA6PMXNznl1pHQ65ny0WWp+natNk6qWKzemYnM8OG6DDYwsl6agui3tXtxXVML2Sxgx9WwUmaB8DHSZ6Kw4FVK/0owmkPxqk/PG5xOnxlrIlVK90/SjxbY03gAOUl8/O3Up7Cdeq4frnVF2d1hI7AzEDsQIBKebUz5ZnC7WZ0WML/mNH917pQjeTCpGgU+zl1LYCs9RaAdDtjdlQxjbLmfP+DqzRC4Albx6rqIgDpgXZnd8vO78r0+Fb3RmHxdDSMz4YdKrsoOFZdHZowAEWhzHYMOszlJkCl1jePF6AobSuGjvPLtdVCitauokW6l+QfFoQ0SQ+XikVn45qbWi8hoK22ZwWba6zHGyBh6XJsoWHbcA2EyujCRkCuss0KHSBlrq8BgsoXaI9Bl8ruQAFVyg+rAkngevuBFAq6KW6sn781w+ffz7Xlc644xxb1V9Hlcq2LN2t0CTYvOdzaGpWfMjrsukj3XZRoDQ8wXjNocTsmmD+yQzy9VcNgyQwsLFL2Do9HEk/66XroXyFCxXWzKQaCQTzTlmHG/XfS4AFs+zwtJ7Rynro3A64dceaMeuupdbJbFZhjXm+GxxZJ7hHD4yoZjurQGJOeVGBcNzRChzuFRXYnmtUENati8AeLcw9fnQCRWlgFl0r+fs9k7xG2lvUYYy9B/XwOcMmqorvWtyda5J1762yq6pN6O4jgHeduTOYax9BYdceyRVYlvO57Q5mO23u1QAz4JHHoWIGvBIGngRSfMZG8ESmzgoO8oC1yKNz5nhirBz+1ekGrAmQCKA2MadtXjG+lVc2mw+3pHkl/PkwMwpe2eO82tbda/COwuyq3dnARgFs1CLnei0SgKbhHqu5eNfy5x5v8z6YM2+MbmCLmA/3jN0ZJdAZ1A9srruTc9d22qLozbk/1ldQJvChY4bx0BxmII72OIsZ9I8dDFPv6B6ic9cebt8dFJPAg1IwBNqS6vojg0Izi4thFG0tBcEweUKTx8dwHxKQV8WEP6jSwZs+O7ZCLIazSD1pJGn+1bIw7Gal1izc8tIJB8rjLLq8gGbRtfh8ofDzwc1XcTnpklCuSQ1+2Cj2TX6zQHO+zpvrlHvVZPSPygCftyfAo8a9QS8cPX9di7kUgKxh/F4Dd4UrAgaYXiHA/jWB8mwFINqH+WqZzzQ6c0g8MmAWKsn7QJhqelMa6hOL1rhaVgOIUl/5RRZ6UbrIlebxPF0CJwrsPinruVtgfzRW2UBRUhaBsoer60PTCysQRFKH8CtYcAt6JY8/Kaq5W3ZCH7+isqGipCozgGDZqNnJcpFgRf3OQ/1k9mBPHAb7uSsMIzIzKg6IPqA0TSqQPw3wFOEgmt42Y/YrJyVBrysuk/F9e4JTcnVQfrQPXyuwy1VsKI/Heh0OHR1z2UB3IaigacpsU9VBsIyh0XJ1ne9aBZYpq2iWYf5xH8z5lp4zLOUChNT+0FwnfAM2M85AnVR5PQhZ8gvxn7dlhFNgaXv01BNZh9uIeqc027F00bU/fvN1ZfHpQI2SxDsWoxSJgn/u9TWDgXycblYLeQOVHC4z6JI+goMQg5LyQC4WGchHsURuCMhmJZfbejcsCpKK2wQ304yuxfJHupYW2UU782rXbm66ufcqp2rntn9XN2/Y/r/VzZuhgMx8/ebhxxu0nadvQjo61JXfuGvLWnRfv+lqDVSvQtaSuVYX2QvV6K5SKgstUuztzbTbrpstdya2SX5NT5jFNyVgdLne6AWDQ3mZZx246dpwUrPTNeN4debQxV64erTOVjP1omSOejFfrdULaOJRsbw8O+oUwg2fBr7ZCoJGoPD1vSr1iZF606vj9jbf1GIu1rkqIzlayM3m63STz2UMJdKzZbYGgV/L5UYvYU60sLcbOHetGRILc0fDgKbe7dYOlrwuS/5ilDSn9mL6r2eD1iRS2jJNpspxQGaX+cxcpRziSDFOhpnySi9eYoUtl6ZqYmC5EKawH7PV4fEQh24p9zXQ0C+oOXRUje50mRbyIZcp7grqb0O0dOFq93gz+22TLY3ZqN5Txe2JV03XZDLWItb4d1UVX+uskuIERvpMl0jR3j+2FvAPNgFILs/y83uQ/om1wH/u3rVapgju2ZbAv0L2M8MMrpDSe07Y2lwTMSvKVFZHBTXHYBwcDagA8bubjxNYlb+s5qImf/Nrk2U9A8Aqo+fs1iV6mjXSq9xfZ9nvn+WVWu15yD+DRsrW9izbPNcNXqhc6g8d8gAu6oPser7QdfxybE2AenpskQlgT45G8P1BxunlpoMvrjhMqPSHXp0D6/35OVQA8nueHlv5lVJLHIFlc0YYwI9VFg7p6ltz39weGIfSE2Tl5ZtFqvXnkbZKc9DYgRxrjzayAA21aByIehiMcDB5MYRPrQpatQ8FUAzFSrTrHySjloKTkwLYSjfF7oGe+qCLc+u7lVo+zi/jNLOeWiluqZ6tFYaAQE1d8BfKOtN2tgVTKjg9DXhbKFr0RCUN0SDeXRlBZSDTC5x7WgOstKqKyQlmhkKQK+N/8991PqsXs4qS8FmocD2nQJ3z63LVbBTwpgS8uQ3wZQn4Ui911jpULeMar/Z4M0F+QYOghiwX4aKsHDtVwvdfof/i0zk4MgYM9soAxN2CwHsW9PQv2C9Gt0ZZtoaRDJpsY2DxZAiLTbrc3sKNbuHppBae4orEYBNvTOhLjcaTbWgYiPy0+qUe0HUS0s/aSU9rKFQviMD9+1ZAK5XSqcnq1mM1tRDAlVUKpDaa5BqstioowMIoJxg7m021c2gVkn3arGlcn1o9WT6uMm/6mTd15st+5ss6c31qjqE6WffKacFyiV3Ql/oTs+BRXRJYVZXL5ZL3x9Vxn46m9OXqlxrby5VB4eXqiZlxY2Q8NTMaysqp9LRWNvOC6Ual5QTZB7npgDztgzQNFQlbGyoStjZUJGxt6GWWXdS04o9yveq4lri2vKB+MUUER7opFTguTUGox+e4GOihfNJAjve7bkyj0OndYui0O7YYPe0+LQZQvzsL7d3rwkJX97qt0My9rmpXUndPu5K6S9qVFN3AzMXCckbSk+3XaY7W/awobcxqx/3Bzqqukxt1an2fXam1PccfXy2/u8zLzGz5k15TOjU24XWlxopntcet0yvJ0eNzvgY92UqumscN4VYGcBygyWAlzU6QVl9aaQ82V2Tt0mRRYrBZndVuWqviIVjM2KVZhB9sFDLaTWKHD7epc3ZpVBcYbBVz2s1iDMS6N1V2J8Z2mZvtZco5vUOeWaa2Pdowl3qyG0AbM3ZhAMIP0g8Z3SafjDX5ZMcmn4w1+aTb5NOxJp/u2OTTsSaftpss1dpws1XmLk1XZQabLzOHUBhhdpW5OwojTDec0i4KI8yvMndHYaQTysyOSiumhhGlVmbupNbKMsOKrcgcQmGkI6rM3VEY6YgycwiFkY6oMndHYaQjyszKocM/XdsQPEgM+wKr8WWDqWECAab4TzcLLEEsCUrlGBUJ/vW0V76Qg1l/iaZehSmFtfp4etSro9ju+b44pFCcRFmn17MWSW2DrrWsVrVYysNxJQPVR430q44x8L1cywuwIH49+GOjFsmrg2c1wMPsYrVQbXvBMBWGOKwtRas22fqsKlnNRvhc2nSVHVfabmMMB3Pq7fARKmrt2fZXuorl0So6Ua+gbzbm2jluc8zlChzH+OF5uohndU60VoBRubA+O9SLr4elAEAlrY2YQ9wBsf6wEkDx1KXUYnyVWxfZMtOnee5ZFxJD507pPSt7odbJIrs6PU/jWC3vWa8OSxrBi/0XbrpYP63wZ7kBYyKr91mmIBunLypU630clX+WA0/DyxzXtjGI9FDnkcvV4VGDQhHw+UCuiw2DVmzDfUsU/m57c/a+xR23lW4i3UEtkssXclPuL1Twg9jV2xjbgYut/MPuOZ6tZXS8wmHnqE/FhBrz6qPEvVNHtsRtGx0HXGzf4O50ieoOVcgzlAisxtx+quuqFwz0jseW6ODWXgPtbbPcXrLcbaBtxj0c2nB6HTnsVbi9z3vBXreVR06e4eYnVmOcobmtXNEHej4q+lJv5xl9OVCB3oepo4RmQxFArTiFsSqqEKLBmKQJ5Qe3wcaARzbGWqvn3Ri5fl2djcOiwCinTBmpck2pDreqCi09umaA67bcSEqeRr8bcAW1YZbnesrq9w5nLeY2ZUoO6eCVLew0iQrlum4ZihZ44gHkLFazLk5m/d0ef8vtbR1ag6FHDZqDm+4DnD3ktM/DelQcOu5OJNWKrhP+1J2GV7LanNaBOeNS0YREFRE8W1lykbZqvVWGbNqSoX4QE9tBiLB00ziO6IKydr9OoUJe96kwEXpNqXtrCA5GrE1rGyGrs8wtE/o/Kvzy6x/KnFlp5srF6lw262tSH8tIJRjM+vB6kRotFLYKrZ9a9DrRf0o70jKbQ6Iepy9VP/Tx2OpHFxZENWXPJQB8I1efL3F2wq1qRGEE6HGmO6uGGJ9y67JxdlGOjopN+ix3i0ePMaU2pqXefQSAfijnyQBBva3YYkuv1cB3veyZJe4UDd2Zsp8MLROLH+9cSBfZA6xGhh1bDgVrvtycRSZqNdNnxpHehMJ4CH28Hi9tSjK054Z5V/lN+taNoxEGV+5Se/Oz6sTexnOrP77v5s6Eczyxv2u6u2T3mtxKdQ96gOg+zFaatXtSOIE9lpXpHakM07zKGdxMHxlFw3XjYbRHMNXoe7hQo26BlNctSLoFVnUVQ5czt5M2EIUwStlAzcOEDQIO0zUEOkgW9CC65KiMX6rS9wftHNfOvZa4LUdHqSELX6PQ6RKL0uho+PPZRZgCyRpkRq9D/acr0ItKX5cVfnaNwQ6gFlY5IJ6AqwRJ6eZfagEEzn+rN7QlJOKEMLS1X8FcY8lvmlCmBrWvYY57IDdpVOXO/ijmwGIWoqhxXjUOnK7oy/J2oFZFVWI5/7YA5+BUgmGsNvPV5eZ8NrDkpO/6OToeyKnI0wBdnnUImbWbPe7QfWSZPLl5PZ5QilwxeXIzlSc3b4snmEMqxtzOlJs2U262MOXl6zIF2WIy5eVUprx8e0xpROV2nrxs8+TlCE9gHOpKtF4p1gPbmk9HKtuPZr3pqQA2eTsQyFgUb4UxlrGIrWDD0kwoVWZRs26lSjVRrW7CwRgpubTkeg3uU5ZUoZNqc25dnYMytpSMzq0L/I2QoKOBciNopaimpqqu9n6NQYS2H6j2X+mz+rtBJlcXq6LmC7lCBIy6i0u8cIouzMOmrcLrulg1MaCt1ucwv38OeDdxs61DDZYu+2s3FL1o7lkdpH6vXqAtce3fKmRtcnxNYa0SYBVMMBsrVHrTADTyb1IfXKkg83OZA5sVTi2LG6OuY+Cu1PcpaZAc3NG1VUm4LhGVq+NQDHKtDejvEqMrvIIOuq9o5HBjVFumIW9fpJsU5jXrSoFxbi2z3LoC70Lz9Ty70nXipTwGfwcofU1O41pNl9FbbupqLmDpo1B32GUaP9Me3UAnTrlTrIrcfdXtYPOKqJLzqxQ6AcSyLd26pxQoA2DzEi/AypC5EfSEVnZlJ2qmIjabhm/6gipA/tdn5SqE0WLNYvMyq9dlfFW4USOfY0phGMzKJo5LrVw7DKZy0jVUyfgDaity6yHd/lmGUBP2zKyrIKNQ1fhZ1WgS2e1aTKy3UQweNQdItCc/q+oyQOaVtN8vrosYgCjDq3tJd61D6wEkHvZYYYAONLkzX8yWz5rZr5MyTmOPX0ZeT2vpMY4+igUyu4JRlRcZOhb1rO1zr1Dl11MvOlU2x/9L6SgLXbTD7GFuaE/5eEahZRu+apfvFZ8BIsdYbwVmTMmbJrG9Adj2tzA6tpNy00t5Wa/KVPebtVD5oUotea5vPRvY++S11dy73axH2vfn2fKsMYaKrlwWN7k8LksfVos75roOraIqZeEW9NLRe7lcyH4BdZFuNuDW9Euc4719OorLqdNAPZ2W+D7KLmHgPIaUWoaKY2jmmYvO6Yx6baJK6S58Gc4cdujnL7SLA1wG5312qFkMzvzy8Bg06aNy6eib6rq66sqXe9NrjBa4tt6r7SEmG9X1TgJUnVH3VUufnpzg3Y0Zrk1mZ7OD8kQazNkHoDUMHVJRXyZdyc3PtTpq6ydD0c8XIHWGOV2mtk519JRbvd7WgUZl1JXKIbj5UincZcU97Ka6oeN3kzjyA4IiQ2o8tC/6p7Gn0f19/uCJwQFatS33tdHWLQQjPFKM6DVkg1W1negXXYobLozgO8CGeh+sA13ZT5M6u7SAhrk8yKTWwcsWd6pL4rT4VVtzZVqB7OZR4bPMGtD71iEmHjaaBkkyrpTEA+FZbRgWpMGUVvZVw3Q8IHS5hopzNMZK8W8MUKPGxsCsDKSWHWJAFpPrvQoc6yksorqGso6Gy1qB4+T0w5cPSh/03igwbmRVu6lsHGyk52r7tXVdwT9KLv/zn+bFnEYkzZCUm5C10dUywM0euT9kmW9n23BNBlbDeI0UM8mvPrX908ayZS5tx69b+lbMegUGuqQWVhAH7WKhXWCiWOJWdl4L99qSayqRL1RH0eASJNaN9WbF2sOfKu14LdpUeRfvSt6HJvb3Q95bM+v7IuotpKZIeS1zt/RDEStX+zLGfSXG7DJgAJZxLUVFzY3G6CK+0FvtC7SNf7nXyn7SyX5yr312fcg0bDUEA+47dOtlhP69Hr2FL6CNSyQ4xTWUYuUsyi9hNEaFfYmLK1KfAEdDIMMdD128cESqGc4kpEMJstAkpENJzVINM8d4+1m7/MmgnVzeinTH0veN3TPrwCmbtCp5MlJJdXUR1nJX19IIwNbTrIbDhfoCA7rKLT6NwtCt27WktG/b3V7NwG5fXx83vl8tqhv4rMyyemUvs5J0gWBJut7kRXF9mgM6WhYGXGdFRoM3CzLXR3+UJ5Sva6v2VYWR0fZ9g6w6ubCxNrOqtbqcqeA35cpCHS1aqDzDRmtAcfm1WcGogNtXZphxF1Rf3Nbffr1bi96dLTDGfTfdRooIMDLSSH3dUSWcQ63UMS1bmjFCgsJF1izqvKW7Pd6kzrELPtIltkbqqqvK9Wq3DmI5LO+ABdJber5a/ayWsT4J1582yFV3gPYM85b213coHpg3PB+cNrmWxuDu/fYd0FtQMV5P6GPUk+RWyeqlDNP2aGGgXyO4hRV1La1GX5k/zBskGw58m+EzCm+d9g+B9GrVvE38KLZja+1jyJcr/VZVwKpLbCFmrJFhoXo13GtLq3rgY2uv1a+DDFde1YdXqEyp0HxY5N7t3DefAJnYA90naMY4b1Z9m/R069xViMp3SCx8iGQiGZ1ncMaoMGveQkCntl3xL4ZYX/9tH7TVIzzbB+5tesOsaefB23pSZSLuvZeARvHX77TcIjq92naloXi+yYTT0TfWb/KF3ETrdJVbM6rXjQ7x72I1dxKhrXvGrH/cb1002CX25xL41PpE34OWxvcPBm+5O/h0lBfmdXZanZxgVZ/2tUrT7L/VzdYWq7vtJrRaXmI3seFH+qj2lpbReZvQKtYzscni7vYtTeJNdhOa1NfdTGtSd/3WNvUddhMaLYSoaXV8RFQlflqm+tWhkdEwdlfn7VgcbZlYXvXtfPMEGPClb78O3oundw3VunPJqbGo2Lmlb6uXX936hR28yeXFql5B/u8lJHymswHwC3w5YVZCb4lwbC0tDEX1tQBu9VVrx7f4mJVPUI15qKZ/OlJ0xCvtMQZvub9uViD0PCyXeRPCx6Av9I37wueBExRX9uocbulLW7gvROB6ttvk2FiGzQVngtmeaK6MkUJ7YXPh2MzhlHtNjlOUwff5qCN4UOesrAIDm3tOwKoFAMD1MS5P6tiU9GyJ4RLXVRGdUC1wF08tmPfpltmkvm3GeEdBhpvZtRnq+M/HGLh7cbmQljdnc+5WjWindU5PZvAXjMTVHeOphZsiDzzKGf6Rzh10HKU4uqMv7ZP2UZHAy38Z/HtHt6+uVzNyfee62dHUzjyifOfmnvFgTnv0Wvdbj4pUeET5tdXcvDzX71Qs0ROcHfLYuLuwgih3S6BYeZ7kqwt5hhpWto9eDR8iNGv6IbtqAk70/Xf19XfFbXft18Os9O7d9hW86bVaFOfxiivTU/3+SvtgBsFggXpgGa+OVMrAwObX9I54ZqEs6arneJMDd5xhwLvsWQ14thWQN4DhVkAbAavsV7dxRetcvcdd3xBoMKgH9Wv6zOhn3aT1/zrH5e6Io2dN49jFq8u837/4Q7O6jiCesMygjwWN3y/cuRC5f9fwlCbwzM7EJuR1t4nWLfv14zLVUGnp5zq30RdVVvNOjbnjaKT+P4uLcpWymWHrqcm4W7Nu5FgHh1snVrt9/X5NW2Xr51Yu02aXtLoesnjSr51+We1lNEfbzSu438LGaXsB/h8NIkfNKNZ98hytRyP6zKrvTawghuLKCpDnL4wXCLpVFtFdBmS98a3tgOqjKoT7UN2Gf6XP7nX6uGVC329u8y6vxCygW2yHTsGQkOL3TPPIKs5Z6SeP7nWL6BCjqr1j69Bs8fC4Q+SRbnhWewcwBrLlw3O5PFOzopOrnNsbaj/L9Mfhl2t5s4kkVAru1Vn94xiDhJoneloP9kDeo+Z9G/OxG8j5oXoKpXkV5VWFf3FcvmzcoKHucVM8yw7Z9qjUi7Yd2p4NZ92Mzvt4t7OqfqLqUOvCRgouLx4BnwjD+21L0iCh3yu3N9GoDaPTtTLZfK/W+hXWF/iYJRe4aqtWs1GYChHUJ4DJQoclzbahZD79ad3fyocC9rAhFtRKmVI1dCupnTe1qrp+0MnNTQqT5KK+t7+9jrzTAewhf2J7HdVdx/1qqo/+PceDUtx7XmxXyaxnjpqNDzHFKpP6DKwL/DzAydFMy5wlu9RORbN+hQ1nuTa6RdbrKQKz6lvZl61MEd3pKvBbNmCGenxQDxnvcxixA8aMWRGLM0khaZMnk2bar7p0iyFjWf3MTsjyq7fDqNazD5VvkJrIltYLzrGHh3VKXlwkbKRc4iJGk9Q2OyqVWNkcaWUW6le/G42ZlpoStSao6zsGTM2RWuWjhzZYEtk1WLRR5UdHxlZ3bpgceuHh17pa/PkV9Or1MzDdG0PFistYXlSzM1qcG/0RXFyKju5a4cEK9Hj1y6pX52l0jj1apGlm5pn+VqssOi97Enetf/rx4WMFHRZvZnUseTMZoJl3SHE5aRZjhwP0N9C557Oju+wIOneRRmpGiqs2TjQYQN+tQDWqJlhFfdGVZc0VNPJwM+vWetqrFdyEy1xtuhV3jLVqeirmsCKYnuiFsTytF4I78125NPOoEFbj5qRiZik7SIududNdmhOVNM4OTSkpkqH1o+7jOPjP9DMUJXnGTl7/8Qojt0Z9LFB3QCvUb+dqg958Pdf63/+1hsG6KGxZwAd5XWYkW5VcaAVSbD0r8crE9h8tPIqHenG8tzgD6Oucw6OJLTRauFW9fsx3qHbMeNPKzYd+h9ow8t+YjuJB4E4roMFAzXyXzA6L/MMj61OLsD239SVaTo9053SaAwE5x/1YUFNQ81Wan8NkA93b5O8Foce/3+hTzO+G/B8vQzwlAVPNW2z00cAoaJocZPZrtVM+8IwtzYZ5Wb4AXbb2hs01z0F3W9QDRDs5abauwcpwiMPJ7VaKpfNmhmE2mTnPY30g5Tnu/8dbwPQ5u1Z2FfEyEOiyPczFQKp5bWOL2q+CJVHzNpGW1igJrUMLxZ9OxOjQCa/2pmzrJGp1zHOF71njYdLiPCKe+UqXOtoCUTWLvwmJOK8+BzE4NGl9NUB22SVvp4H2rtZYlM4QXfMC7Js+1z+wDuoQgizasQe21zDE4qFooEnCE5YFxwbHUGNjwS+TGjRDVnZpdCxUZVKjRpjJLm0Oh5dMG5SrW7TOYC+OhoVM60vTvtyl3W4oB2rs4nnDlqausn4vAxZq77LJKo8s1CvFA4a4sXy9JQi3OPd7f3iBuQnNxT/N0aqm3dIFgZmWtsf7AJLNSYuBBe7RJoo9E+2M6hAV80X6prGCh+0yVccNVWX4tcWfV7ehUXXGGA5NZ42UHGuu+Wyz+kUdlaOba8fljHV2icJwb06p4FHhcKMLOgm+esopnVj/v2s2DbFlrNTPdQcvLqeV+Kn0hC87QSZtl+8vxsqmzC5MPTx8M442ETUt/bntNPwfw0esW+qmf6ZqVu+2azk47oz3b9JlL0lej+zAH42o6lfm6lP35Fj37E71POzggaA3j19q4dI/AtsxyzoAY0ZcK91Yl226rq/hJp6c7Tgz5fUYo3daDC0KF97rWiUY6IQrPm3fqX12b+jkd3eEd+AGPa/2tRWjd0oY+Jp3X9RNmTdYDHSTtj5r6WixvDBMh2aW4Us8Bo6Fj6Ow9fRgRxvefmdI+6CbeaeGNiiyJDHvzdmUFyb1TP/iKpmyCazgtW/Q6UlGzy0ZPq440LMjbs1If0wQla3iMtpen6Tiz6AL1VxldFwsXHVuLWr+TOnbIZnY1jQe7aub1/7bjs23FoJNrmzTZl3GFKeBi+WNPLMKUKtQfPVAbK4jKg4dWfl5uunWM3rPwDbtOVp828greX2bTdgbbMUbVU0Mzc+NcW3G0jSmihFu1/IW+kEuE7yEIefA3JeotyT+qKeBCrueza9pGtyQNOKSCnLr7b7+1SaPvvtGxwwui7vgcM+1pqA5vlpx4FwWZOPGT+8G2YY9//xn//HUHoml2ELm/MufvsLnU/Isx4VIc4vUDHxcNr1haembP3+eaKjNr5j3DC832jTxWIMgxtHTlcTLHfDmZvOzaL28dHlyDdva1DZfrJJ0WYu8BsuWP6gN3qdcbiOXDCmDwMD6K1ljPJVZrD0+v4AWdchV6/AYxugUCzL4Va204Le5EIK/zTUKHQ+0Mutoe/flqhlKadX77bDmApsiWsuMIHtVEtOLFinXTw+PWxXUUSM6zXpwMyF6YCxIvB8VVE+01drDc7yB4aYOXutfh9zdAytM9qHi88vl5jxN8llru61od4D+eusNGDBUXcWIxzgdFIB74QTKU8L6AW6VSH2h9VlFSMKG6Ci27g5bKNdpr4tzLyLEaKkTETJC3hi6eiuwjW2V9FaRLSp9M1zNncU2ypjz1lFuNfeGXC52zzp8rhPfLqfLat8M40d9KX60DyF+9BZkuN6da6mJOvGt4ltV+2YYNzuAbaRb6W8Vb6PmKagXSwRjwlw6011xbpLfskBXFe/A9DoIrtbrvK/Xi3NClTrnXWLNw0g1rd+1E2+jtEdRq9IWQa/G8Lj+OVVXNQK/WMXPEeCbFvCT7cAvW8BPtwPjzlrehLIWvyrYFr9P7oxx/HHR4dbDy3y0nesSqAhEtl3aUF7lDPC9GyNr3iIHJaPLvDhRO4XhN2MYPHltDJ7shsHLMQyevjYGT2/BoOzBOydFH5oeE/71yUlxMvhT/MTji/rjPL9YfPr/ASnD42w="
               }
            ],
            "step_warnings" : []
         }
      },
      {
         "arguments" : {
            "__SKIP__" : false
         },
         "measure_dir_name" : "BTAPUtilityTariffs",
         "name" : "btaputilitytariffs",
         "result" : {
            "completed_at" : "20170710T184724Z",
            "measure_class_name" : "UtilityTariffsModelSetup",
            "measure_display_name" : "Utility Tariffs Model Setup",
            "measure_name" : "utility_tariffs_model_setup",
            "measure_taxonomy" : "Economics.Life Cycle Cost Analysis",
            "measure_type" : "EnergyPlusMeasure",
            "measure_uid" : "7353d86e-d166-4f32-a572-27ce8e65ebb5",
            "measure_version_id" : "ca1cd5c0-0e66-4db9-a9a0-8b035cb1ed3d",
            "measure_version_modified" : "20170519T182314Z",
            "measure_xml_checksum" : "4A4E44A5",
            "started_at" : "20170710T184724Z",
            "stderr" : "",
            "stdout" : "[OpenStudio.Measure] <0> OSArgumentVector is deprecated, use OpenStudio::Measure::OSArgumentVector instead.\n",
            "step_errors" : [],
            "step_files" : [],
            "step_info" : [
               "Found [\"ElectricityNet\"] meters that are not of the type Electricity, Gas, FuelOil#2. Ignoring them for tarrif costing. ",
               "Found Gas tariff database match for weather_station :Swift Current_SK_CAN\n Row Information is Gas,MJ,SaskEnergy,Swift Current_SK_CAN,Saskatchewan,31.95,1,0.0068,2,0.0068,3,0.0068,4,0.0068,0.0068,1,0,2,0,3,0,4,0,0\n",
               "Found Electricity tariff database match for weather_station :Swift Current_SK_CAN\n Row Information is Electricity,kWh,SaskPower,Swift Current_SK_CAN,Saskatchewan,49.58,16750,0.10453,16751,0.06729,16752,0.06729,16753,0.06729,0.06729,50,0,51,13.4,52,13.4,53,13.4,13.4\n",
               "added a tariffs \nUtilityCost:Tariff,\n  SaskEnergy,                              !- Name\n  Gas:Facility,         !- Output Meter Name\n  MJ ,                         !- Conversion Factor Choice\n  ,                                       !- Energy Conversion Factor\n  ,                                       !- Demand Conversion Factor\n  ,                                       !- Time of Use Period Schedule Name\n  ,                                       !- Season Schedule Name\n  ,                                       !- Month Schedule Name\n  QuarterHour,                            !- Demand Window Length\n  ;                      !- Monthly Charge or Variable Name\n\nUtilityCost:Charge:Block,\n  GasBlocksEnergyCharges,           ! Name\n  SaskEnergy,                  ! Tariff Name\n  TotalEnergy,                            ! Source Variable\n  Annual,                                 ! Season\n  EnergyCharges,                          ! Category Variable Name\n  ,                                       ! Remaining Into Variable\n  ,                                       ! Block Size Multiplier Value or Variable Name\n  ,            ! Block Size 1 Value or Variable Name\n  0.0068,             ! Block 1 Cost per Unit Value or Variable Name\n  ,            ! Block Size 2 Value or Variable Name\n  0.0068,             ! Block 2 Cost per Unit Value or Variable Name\n  ,            ! Block Size 3 Value or Variable Name\n  0.0068,             ! Block 3 Cost per Unit Value or Variable Name\n  ,            ! Block Size 4 Value or Variable Name\n  0.0068,             ! Block 4 Cost per Unit Value or Variable Name\n  remaining,                              ! Block Size 5 Value or Variable Name\n  0.0068;             ! Block 5 Cost per Unit Value or Variable Name\n\nUtilityCost:Charge:Block,\n  GasBlocksDemandCharges,           ! Name\n  SaskEnergy,                  ! Tariff Name\n  TotalDemand,                                 ! Source Variable\n  Annual,                                      ! Season\n  DemandCharges,                               ! Category Variable Name\n  ,                                            ! Remaining Into Variable\n  ,                                            ! Block Size Multiplier Value or Variable Name\n ,          ! Block Size 1 Value or Variable Name\n 0,           ! Block 1 Cost per Unit Value or Variable Name\n ,          ! Block Size 2 Value or Variable Name\n 0,           ! Block 2 Cost per Unit Value or Variable Name\n ,          ! Block Size 3 Value or Variable Name\n 0,           ! Block 3 Cost per Unit Value or Variable Name\n ,          ! Block Size 4 Value or Variable Name\n 0,           ! Block 4 Cost per Unit Value or Variable Name\n remaining,                                   ! Block Size 5 Value or Variable Name\n 0;           ! Block 5 Cost per Unit Value or Variable Name\n      \nUtilityCost:Tariff,\n  SaskPower,                              !- Name\n  Electricity:Facility,         !- Output Meter Name\n  kWh ,                         !- Conversion Factor Choice\n  ,                                       !- Energy Conversion Factor\n  ,                                       !- Demand Conversion Factor\n  ,                                       !- Time of Use Period Schedule Name\n  ,                                       !- Season Schedule Name\n  ,                                       !- Month Schedule Name\n  QuarterHour,                            !- Demand Window Length\n  ;                      !- Monthly Charge or Variable Name\n\nUtilityCost:Charge:Block,\n  ElectricityBlocksEnergyCharges,           ! Name\n  SaskPower,                  ! Tariff Name\n  TotalEnergy,                            ! Source Variable\n  Annual,                                 ! Season\n  EnergyCharges,                          ! Category Variable Name\n  ,                                       ! Remaining Into Variable\n  ,                                       ! Block Size Multiplier Value or Variable Name\n  ,            ! Block Size 1 Value or Variable Name\n  0.10453,             ! Block 1 Cost per Unit Value or Variable Name\n  ,            ! Block Size 2 Value or Variable Name\n  0.06729,             ! Block 2 Cost per Unit Value or Variable Name\n  ,            ! Block Size 3 Value or Variable Name\n  0.06729,             ! Block 3 Cost per Unit Value or Variable Name\n  ,            ! Block Size 4 Value or Variable Name\n  0.06729,             ! Block 4 Cost per Unit Value or Variable Name\n  remaining,                              ! Block Size 5 Value or Variable Name\n  0.06729;             ! Block 5 Cost per Unit Value or Variable Name\n\nUtilityCost:Charge:Block,\n  ElectricityBlocksDemandCharges,           ! Name\n  SaskPower,                  ! Tariff Name\n  TotalDemand,                                 ! Source Variable\n  Annual,                                      ! Season\n  DemandCharges,                               ! Category Variable Name\n  ,                                            ! Remaining Into Variable\n  ,                                            ! Block Size Multiplier Value or Variable Name\n ,          ! Block Size 1 Value or Variable Name\n 0,           ! Block 1 Cost per Unit Value or Variable Name\n ,          ! Block Size 2 Value or Variable Name\n 13.4,           ! Block 2 Cost per Unit Value or Variable Name\n ,          ! Block Size 3 Value or Variable Name\n 13.4,           ! Block 3 Cost per Unit Value or Variable Name\n ,          ! Block Size 4 Value or Variable Name\n 13.4,           ! Block 4 Cost per Unit Value or Variable Name\n remaining,                                   ! Block Size 5 Value or Variable Name\n 13.4;           ! Block 5 Cost per Unit Value or Variable Name\n      ",
               "set the simulation timestep to 15 min to match the demand window of the tariffs",
               "removed existing lifecycle parameters named {313668e8-3634-4be0-a8b6-b2068ae0c84d}",
               "added lifecycle cost parameters named FEMP LifeCycle Cost Parameters",
               "removed existing fuel escalation rates named U.S. Avg  Commercial-Coal",
               "removed existing fuel escalation rates named U.S. Avg  Commercial-Natural gas",
               "removed existing fuel escalation rates named U.S. Avg  Commercial-Electricity",
               "removed existing fuel escalation rates named U.S. Avg  Commercial-Distillate Oil",
               "removed existing fuel escalation rates named U.S. Avg  Commercial-Residual Oil",
               "added fuel escalation rates named U.S. Avg  Commercial-Electricity",
               "added fuel escalation rates named U.S. Avg  Commercial-Distillate Oil",
               "added fuel escalation rates named U.S. Avg  Commercial-Residual Oil",
               "added fuel escalation rates named U.S. Avg  Commercial-Natural gas",
               "added fuel escalation rates named U.S. Avg  Commercial-Coal"
            ],
            "step_result" : "Success",
            "step_values" : [],
            "step_warnings" : []
         }
      },
      {
         "arguments" : {
            "__SKIP__" : false,
            "generate_hourly_report" : "false"
         },
         "measure_dir_name" : "BTAPResults",
         "name" : "btapresults",
         "result" : {
            "completed_at" : "20170710T184801Z",
            "measure_class_name" : "BTAPResults",
            "measure_display_name" : "BTAP Results",
            "measure_name" : "btap_results",
            "measure_taxonomy" : "Reporting.QAQC",
            "measure_type" : "ReportingMeasure",
            "measure_uid" : "98aec261-d860-4ffa-9537-fa32cd356857",
            "measure_version_id" : "28c7a282-069d-4adc-a562-aa5e8c0a921e",
            "measure_version_modified" : "20170519T182313Z",
            "measure_xml_checksum" : "C3418C13",
            "started_at" : "20170710T184757Z",
            "stderr" : "",
            "stdout" : "[openstudio.EpwFile] <0> Successive data points (1988-Jan-31 to 1971-Feb-01, ending on line 753) are greater than 1 day apart in EPW file '/usr/local/bundle/bundler/gems/openstudio-standards-f448df66933d/openstudio-standards/data/weather/CAN_SK_Swift.Current.718700_CWEC.epw'. Data will be treated as typical (TMY)\n[openstudio.setFileExtension] <0> Path p, '/usr/local/bundle/bundler/gems/openstudio-standards-f448df66933d/openstudio-standards/data/weather/CAN_SK_Swift.Current.718700_CWEC.ddy', has an unexpected file extension. Was expecting 'idf'.\n[openstudio.setFileExtension] <0> Path p, '/usr/local/bundle/bundler/gems/openstudio-standards-f448df66933d/openstudio-standards/data/weather/CAN_SK_Swift.Current.718700_CWEC.ddy', has an unexpected file extension. Was expecting 'idf'.\n[openstudio.EpwFile] <0> Successive data points (1988-Jan-31 to 1971-Feb-01, ending on line 753) are greater than 1 day apart in EPW file '/usr/local/bundle/bundler/gems/openstudio-standards-f448df66933d/openstudio-standards/data/weather/CAN_SK_Swift.Current.718700_CWEC.epw'. Data will be treated as typical (TMY)\n[openstudio.setFileExtension] <0> Path p, '/usr/local/bundle/bundler/gems/openstudio-standards-f448df66933d/openstudio-standards/data/weather/CAN_SK_Swift.Current.718700_CWEC.ddy', has an unexpected file extension. Was expecting 'idf'.\n[openstudio.setFileExtension] <0> Path p, '/usr/local/bundle/bundler/gems/openstudio-standards-f448df66933d/openstudio-standards/data/weather/CAN_SK_Swift.Current.718700_CWEC.ddy', has an unexpected file extension. Was expecting 'idf'.\n",
            "step_errors" : [],
            "step_files" : [
               "/mnt/openstudio/analysis_4fef0e0f-5396-4c55-a6e1-2cd6803db3ab/data_point_ec46046f-10cb-4047-b7db-be776570ce1f/run/003_BTAPResults/qaqc.json"
            ],
            "step_final_condition" : "Saved BTAP results to runner.",
            "step_info" : [],
            "step_initial_condition" : "Gathering data from EnergyPlus SQL file and OSM model.",
            "step_result" : "Success",
            "step_values" : [
               {
                  "name" : "model_osm_zip",
[...]
a8ScPIVrxFxJOteMPXlq14w9eZrXjD15yteMPXn614w9eSrYjD15WtiMPXmK2Iw9ebrYjD156thMXJenkc3Yk6eUzdiTp5fN2JOnms3Yk7+qOrf3ReUrjeIzKnbMAn47/wgk+/ajHd+MOtlXHJWfe8y/xYp58jqcBm7c3u11mG3vdthA/K2/q/bJyF2Kcf+5meueOAkfhdHs1Z0X598y3Z+/wgdfqcCHyOXRx6n4tEj5QMExW+b4lTvxNOI5hvg6quj3hj+8QzOa0YxmNKMZzWhGM5rRjGY0oxnNaEYzmtGMZjSjGc1oRjOa0YxmNKMZzWhGM5qfcfPMCm94FHku/9URLwbZVs/wfZus2O3yqz1nPPJ4XLwe1OrMX4Ca+GFiiQq8la/4xA+9Z1T9ZlBsZeUvJqHvJF4YpFCtOOGT7gW/DCPeUntz6z0f8cBdPqH8t/Zer8MG4s0rUbHXFn8UFZkri1XPZa3zEU9Og0T0T2richoMM9L2FvuzQmJOyO+P/lz5LprYvEvWTsZebMXZVVEzJLaFg6y0/06d4bj9F7Cu2hy/KGBc6J5PwtgTgm/Sn1XOZr4JmQeoovBWD2mO5QUuF+Oha3c0j55vV3UPvPS4L/ytXfRpPk5GUTidcJf98AP7R/H7nXU+duLi/T0xwLYWW2cPtqYdYjmj0Vthw/J5MErG7CXrs3+z1ivfb7Gj5T1i3xvydtfe+tz7slU53lbOJIxY+yo9ld6P7Co1U7hqYVf89q90xtG/QGITblzofb76Yn3lM3Z8fJx3Xj3FTLW47Fe6pzrfLiLufK1z8DfNY3T3F/1VnN2xcGvhDIWnZC+iWuf50gPcPRGvuMafs578Uq8r5xd6Mo3H7brXIr2kR/n1rD+SfP9I5SwtsWddK3EShV+5mp1837qWwokz9JKZmqli59pnlZmYm6qrMp9IlqeVOsNDe/IR23w4L088rMtsXTWd4abO+q2TRVWl/b9V5RRi295mv//xif33wx8f2dmHj59++e1n9v7Dz7+csHenH0/VBN6msza/c0SKxpKQxWGUsGB6nfrBkGWvZMfMiYdp8uIFIwXFed8LnYXI7HTYhfrkEvFkGgVs4kQxf+uHTtJ2xJS/lV7Khd8ust+UOrM6RVswW5xClfC3R1gi5rs629naL3kV7UdZsQY4wAEOcIADHOAABzjAAQ5wnj3O6roQgijiLmhAAxrQgAY0oAENaEADGtCAppxmZWUiQSPWHQIOcIADHOAABzjAAQ5wgAMc4NTBUV/FLHvClq9RBlKQghSkIAUpSEEKUpCCFKQgBSlInwdp5fKaGWm+eCZIQQpSkIIUpCAFKUhBClKQghSkIH0epFprHGfU+QrGoAY1qEENalCDGtSgBjWoQQ1qUIMa1I9IPcdyI+e2XSl2ZyVe4vOzsTPhVsLvkvaLd+E0iqsxZqtHvvGueRB7YeDzOFOokNjeZq9clzksU2K3XjJmcXjNmTuoODK+GVnOZCKWE2kJ262tigPmm+UkSdRu3bU6bK+nedCsJRYtUT4oTmZi1RWB13WC4TiMWvdLnWhqXIZB0r3l3micCI2L0HfVNfJr89vpyevu6+6H4XA6SWlmL7bKrs7L7XgYeZPkJ+k+L7dd7+bhZukxcrFUi3nucWsoXPckPVvHC3h03u+1WNYFxy3Xiye+MzvyArH2TffCD4dff2zJ+VLR/BRYMpukx4te2L5ybpz819IjxZYtyHMzYsfzdXcCfnt2M2q3/rnK2GE7Yhmb9I/KUbOweMvnP4sVeY5a35Xta3XylvO71pFt9TqtrIB866hn7XVaQzHRpMcUdf1a3zpKOv0lnd3aOoMlnV59oR0qoV0qoT0qoX0qoQMqoUMqIbu3pLRfX8imElr27J36QgOiIWLvEI1Ze5dKaI+qj5Zde1Bf6IBK6JDo1Po9osvfX/bsg/pCfSqhZc8+rC+0oyO0WjtJKbBF3NWQkcY1PRl5WNPTkUc1PR15UNPTkcc0PR15SNPTkUc0PR15QNPTkcczTR1pONPUkUYzTR1pMNPUkcYyTR1pKNPUkUYyTR1pINPUkcYxTR1pGNOcDqVRTFNHGsQ0daQxTFNHGsI0daQRbEVnpSSFUvQSNSs0dKThS1NHHr80heQBTFNIHsE0heQhTFNIHsM0heRBTFNIHsU0heRhTFdIGsd0haSBTFdIGsl0haShTFdIGst0haTBTFdIGs10haThTFdIGs90J0hpQNMVkkY0XSFpSNMVksY0XSFpUFsRUv8mUx7tFv9pnH+0SWCiLxtTdCZKbl2S2Si5q0lmo+SGJ5mNknuhZDZKbpOS2Si5g0pmo+TmKpmNkvuudDbkt2TpbMjv1tLZkN/IpbMhv8dLZ0N++5fOhvzOMJ0N+U1jOhvy+8l0NuS3munCoPwuNJ0N+Q1qOhvye9d0NtYwzr9LrVRtVH4BI8+uFqfd/BMZAhPy7IrMREl2RWajJLsis1GSXZHZKMmuyGyUZFdkNkqyKzIbJdkVmY2S7IrOxhqGeUl2RWdDPuvS2ZBnV3Q25NkVnQ15dkVnQ55d0dmQZ1d0NuTZFV0YlGdXdDbk2RWdDXl2RWdD/tIAnQ35+wRlNrTerVV7mS5/+ZbYnPydu0bMlWRgjdgrycYasVeSmTViryRLa8ReScbWiL2S7K0ReyWZXCP2SrK6ZuzJM7xm7MmzvWbsyTO/ZuzJs8Bm7MkzwmbsybPDZuzJM8Vm7MmzxmbsyTPIZsK7PJtsxp48s2zGnjzLbMaePONsxp48+5zb+6LyPUfxxRU7ZgG/nX8ukn0l0o5vRp3se4/KD0Pmn23FPHkdTgM3bu/2Osy2dztsIP7W31X7uOQuxbj/Ms11T5yEj8Jo9urOi/PPnu7PX+HbsFTgQ+Ty6ONUfIWkfKDgmC1z/MqdeBrxHEN8SFX0e8Pf6KEZzWhGM5rRjGY0oxnNaEYzmtGMZjSjGc1oRjOa0YxmNKMZzWhGM5rRjGY0oxnNz7h5ZoU3PIo8l//qiBeDbKtn+L5NVhZ3+dWeMx55PC5eD2p15i9ATfwwsUSt3spXfOKH3jOqfjMotrKaGJPQdxIvDFKoVpzwSfeCX4YRb6m9ufWej3jgLp9Q/lt7r9dhA/Hmlajta4s/iuLNlXWt57LW+Ygnp0Ei+ic1cTkNhhlpe4v9WSExJ+T3R3+ufBdNbN4laydjL7bi7KqoGRLbwkFW2n+nznDc/gtYV22OX5Q6LnTPJ2HsCcE36c8qZzPfhMwDVFF4q4c0x/ICl4vx0LU7mkfPt6u6B1563Bf+1i76NB8noyicTrjLfviB/aP4/c46Hztx8f6eGGBbi62zB1vTDrGc0eitsGH5PBglY/aS9dm/WeuV77fY0fIese8Nebtrb33ufdmqHG8rZxJGrH2VnkrvR3aVmilctbArfvtXOuPoXyCxCTcu9D5ffbG+8hk7Pj7OO6+eYqZaXPYr3VOdbxcRd77WOfib5jG6+4v+Ks7uWLi1cIbCU7IXUa3zfJUC7p6IV1zjz1lPfqnXlfMLPZnG43bda5Fe0qP8etYfSb5/pHKWltizrpU4icKvXM1Ovm9dS+HEGXrJTM1UsXPts8pMzE3VVZlPJMvTSp3hoT35iG0+nJcnHtZltq6aznBTZ/3WyaKq0v7fqnIKsW1vs9//+MT+++GPj+zsw8dPv/z2M3v/4edfTti704+nagJv01mb3zkiRWNJyOIwSlgwvU79YMiyV7Jj5sTDNHnxgpGC4rzvhc5CZHY67EJ9col4Mo0CNnGimL/1QydpO2LK30ov5cJvF9lvSp1ZnaItmC1OoUr42yOsJvNdKe5smZi80PajLG4DHOAABzjAAQ5wgAMc4AAHOM8eZ3XNCEEUcRc0oAENaEADGtCABjSgAQ1oQFNOs7JckaARixEBBzjAAQ5wgAMc4AAHOMABDnDq4KivaZY9YctXLAMpSEEKUpCCFKQgBSlIQQpSkIIUpM+DtHKVzYw0X0MTpCAFKUhBClKQghSkIAUpSEEKUpA+D1KtNY4z6nwFY1CDGtSgBjWoQQ1qUIMa1KAGNahBDepHpJ5juZFz264Uu7MSL/H52diZcCvhd0n7xbtwGsXVGLPVI9941zyIvTDweZwpVEhsb7NXrssclimxWy8Zszi85swdVBwZ34wsZzIRy4m0hO3WVsUB881ykiRqt+5aHbbX0zxo1hKLligfFCczseqKwOs6wXAcRq37pU40NS7DIOnecm80ToTGRei76hr5tfnt9OR193X3jEc33pCz/zjic5t33Em8YPRiq+xKvdyOh5E3SX6S7vNy2/VuHm6WHiMXS7WY5x63hsKNT9Izd7yAR+d9u8Wy7jhuuV488Z3ZkReIdXC6F344/PpjS86XiuanwJLZJD1e9Mj2lXPj5L+WHim2bHGemxE7nq/BE/Dbs5tRu/XPVcYO2xFL2qR/VI6ghYVcPv9ZrM5z1PquhF+rk7ec37WObKvXaWXF5FtH+7uWfbiwDTqtoZiCUoWi4l/rW0dJtb+gerhjHdKoDhpR3WlEdbcR1b1GVPcbUT1oRPWwEX+1e83INjO67H4zsoNmZHeakd1tRnavGdn9ZmQPmpFtZpT1mxll/YZiWDOjrN/MKOsbjLLVglQ1MoSIuxqiigmCnqhifqAnqpge6IkqZgd6oorJgZ6oYm6gJ6qYGuiJKs5ZeqKqiYGmaiNjSjUt0FRVnK80VRWnK01VxZxAU1UxJdBUVcwINFUVEwJN1UbGlmo6oKnaTLxqZGyp5gKaqnXH1krBlBppgKivoqGqmAdoqiomApqqipmApqpiKqCpqpgLaKoqJgOaqorZgKaq4pSlqaqaD+jKNjO6VDMCXVnFaUtXVnHe0pVVTAp0ZRWzAl1ZxbRAV1YxL9CVbWaUqWYGurINxbBmRplqcqArW3eUqX96LUsbyu4C519qExhUffRAZlD1qQSZQdUHFmQGVZ9lkBlUfcxBZlD1CQiZQdWHI2QGD9dtUPmRCp1F1fvAdBZVbxHTWVS9e0xnUfXGMp1F1Sc7dBZVH/rQWVR9HkRnUfVREZ1F1adIdLF/7XOO8rMnOotrn3OUn1jRWaRIcSq/GKzzGkz+gSGBQdU0lcygappKZlD1GpIZVE1TyQyqpqlkBlXTVDKDqmkqmUHVkEFmUDlNpbO49rlGOU2ls6gaMugsqqapdBZV01Q6i6ppKp1F1TSVzqJqmkpnce1zjnKaSmdx/fnN2ucc5TSVziLFnKP1UUedlDX/BoTYuGr62ohx1VS2EeOqaW0jxlVT3EaMq6a7jRhXTX0bMa6aBjdiXDU8NWJcOT1uxvqjznHKaXMz1lXDWTPWVUNbM9ZVU+tmrKum2c1YV025m7Gumn43Y/1R5zrltLwZ64+bzz3qXKecujdjXXeu+6LyFWbxzTQ7ZgG/nX/kmX3b2Y5vRp3sK83KzznnH17HPHkdTgM3bu/2Osy2dztsIP7W31X7JPQuxbj/ttx1T5yEj8Jo9urOi/MPl+97Q+Hr7lTgQ+Ty6ONUfEesfKDgmC1z/MqdeBrxHEN8Cl1cBdPv1bOPa5dNnfHI43GBm1oqLsjEDxNLfPFbaTJ+6LyrSWMrexlnEvpO4oVBCtWKEz7pXvDLMOItNU96z0c8cJdPKP+tvZd6wUB4gvhC2BZ/FJ+DV34pP5e1zkc8OQ0S0T+pictpMMxI21vsT4XvwQUhvz/6c+XYEJt3ydrJ2ItTvxbHqRkS28JBVtp/p85w3P4LWFdtjl98MF3onk/C2BOCb9KfVc5mvgmZB6ii8FYPaY7lBS4XA7drdzSPnm9XdQ+89Lgv/K1d9Gk+TkZROJ1wl/3wA/tH8fuddT524mI+EQNsa7F19mBr2iGWMxq9FTYsnwejZMxesj77N2u98v0WO1reI/a9IW937a3PvS9bleNt5UzCiLWv0lPp/ciuUjOFqxZ2xW//Oma2/gUSm3DjQu/z1RfrK0+nt+PjvPPqKWaqxWW/0j3V+XYRcedrnYO/aR6ju7/or+LsjoVbC2coPCULjNZ5XveEuyci5Mafs578Uq8r5xd6Mo3H7brXIr2kR/n1rD+SfP9I5SwtsWddK3EShV+5mp1837qWwokzTLMtNVPFzrXPKjMxN1VXZT6RLE8rdYaH9uQjtvlwXp540lzV1lXTGW7qrN86WVRV2v9bVU4htu1t9vsfn9h/P/zxkZ19+Pjpl99+Zu8//PzLCXt3+vFUTeBtOmvzO0ekaCwJWRymiXQwvU79YMiyFDFmTjxMkxcvGCkozvte6CxEZqfDLtQnl4gn0yhgEyeK+Vs/dJK2I6b8rfRSLvx2kf2m1JnVKdqC2eIUqoS/PUJ9qu++Ss8KT+VfmT9KuSzgAAc4wAEOcIADHOAABzjAefY4q1U/BFHEXdCABjSgAQ1oQAMa0IAGNKABTTnNSp0kQSPqHgEHOMABDnCAAxzgAAc4wAEOcOrgqNcAy56w5TW9QApSkIIUpCAFKUhBClKQghSkIAXp8yCtLKaYkebFEUEKUpCCFKQgBSlIQQpSkIIUpCAF6fMg1arAmlHnFVVBDWpQgxrUoAY1qEENalCDGtSgBjWoH5F6juVGzm27UuzOSrzE52djZ8KthN8l7RfvwmkUV2PMVo/8xK8nPHKSacRZ++2W0KgQ2d5mr1yXOSzTYrdeMmZxeM2ZO6g4Mr4ZWc5kIhYUaQnrra2KA+ab5SRJlC8hs9fTPEgs+NJXPyhOZmLdFYHXdYLhOIxa94udaGpchkHSveXeaJwIjYvQd9U18qvz2+nJ6+7r7qcxj67DOHESdsaTSeilwidh6HvB6MVW2fV6uR0PI2+S/CTd5+W269083Cw9Ri6WajHPPW4NhTufpOfveAGPzvv9Fss65bjlevHEd2ZHXiDWw+le+OHw648tOV8qmp8CS2aT9HjRL9tXzo2T/1p6pNiyRXpuRux4vhZPwG/Pbkbt1j9XGTtsRyxtk/5ROZIWFnT5/NcqUd+V8pOuo2pbu4urP+0srP6UV/5bWnuqRLXfiOriOll7O9ZAtlKVnupOI6q7jajuNaK634jqQSOqi2vk7e3LFyPVU11e6JPMYe1mRpfdzPBaXnOTTnanGdndZmT3mpHdb0b2oBnZw2aiQjOjrN9QDGtmlPWbGWV9g1G2WpiqRoYQcVdDVLFv9UQV8wM9UcX0QE9UMTvQE1VMDvREFXMDPVHF1EBPVDEz0BNVTQw0VRsZU6ppgaaq4nylqao4XWmqKuYEmqqKKYGmqmJGoKmqmBBoqirmA5oxoJGxpZoNaKo2MrZUcwFN1bpja6VwSo00QNRZ0VBV7FZNVcVEQFNVMRPQVFVMBTRVFXMBTVXFZEBTVTEb0FRVTAc0VVXzAV3ZZkaXakagK6s4benKKs5burKKSYGurGJWoCurmBboyirmBbqyiomBblRoZpSppga6ss2MMtXkQFe27ihT/wRbljaU3QXOv9gmMKh614bMoOpTCTKDqg8syAyqPssgM6j6mIPMoOoTEDKDqg9HyAwertvgUqZU9qSGzqLqfWA6i2ufbJSf0dBZVL2xTGdR9ckOnUXVhz50FlWfB9FZVH1URGdR9SkSXexXfcBEZ3Htc47yYyk6i2ufc/oUKU7ll4N1XoPJPzQkMKh6FckMqqapZAZVryGZQdU0lcygappKZlA1TSUzqJqmkhlUfb2HzKDymz90Ftc+1yinqXQWVUMGnUXVNJXOomqaSmdRNU2ls6iaptJZVE1T6Syqpql0sX/tc45ymkpnce1zjnKaSmeRYs7R+rijTsqafwtCbFz16jZiXDWVbcS4alrbiHHVFLcR46rpbiPGVVPfRoyrpsGNGFdNiRsxrpweN2P9Uec45bS5Geuq4awZ66qhrRnrqql1M9ZV0+xmrKum3M1YV02/m7Gumoo3k9M86lynnKI3Y/1R5zrl1L0Z67pz3ReVrzCLb6fZMQv47fwjz+zbznZ8M+pkX2lWfs45/wA75snrcBq4cXu312G2vdthA/G3/q7aJ6F3Kcb9N+aue+IkfBRGs1d3Xpx/vnzfGwpfeacCHyKXRx+n4mti5QMFx2yZ41fuxNOI5xjig+jiKph+t559XLts6oxHHo8L3NRScUEmfphY4ovfSpPxQ+ddTRpb2cs4k9B3Ei8MUqhWnPBJ94JfhhFvqXnSez7igbt8Qvlv7b3UCwbCE8QXwrb4o/govPJ7+bmsdT7iyWmQiP5JTVxOg2FG2t5ifyp8FS4I+f3RnyvHhti8S9ZOxl6c+rU4Ts2Q2BYOstL+O3WG4/ZfwLpqc/zig+lC93wSxp4QfJP+rHI2803IPEAVhbd6SHMsL3C5GLhdu6N59Hy7qnvgpcd94W/tok/zcTKKwumEu+yHH9g/it/vrPOxExfziRhgW4utswdb0w6xnNHorbBh+TwYJWP2kvXZv1nrle+32NHyHrHvDXm7a2997n3ZqhxvK2cSRqx9lZ5K70d2lZopXLWwK3771zGz9S+Q2IQbF3qfr75YX3k6vR0f551XTzFTLS77le6pzreLiDtf6xz8TfMY3f1FfxVndyzcWjhD4SlZYLTO8/on3D0RITf+nPXkl3pdOb/Qk2k8bte9FuklPcqvZ/2R5PtHKmdpiT3rWomTKPzK1ezk+9a1FE6cYZptqZkqdq59VpmJuam6KvOJZHlaqTM8tCcfsc2H8/LEk+aqtq6aznBTZ/3WyaKq0v7fqnIKsW1vs9//+MT+++GPj+zsw8dPv/z2M3v/4edfTti704+nagJv01mb3zkiRWNJyOIwTaSD6XXqB0OWpYgxc+Jhmrx4wUhBcd73QmchMjsddqE+uUQ8mUYBmzhRzN/6oZO0HTHlb6WXcuG3i+w3pc6sTtEWzBanUCX87RHqVH33VXpWgCr/yvxRymYBBzjAAQ5wgAMc4AAHOMABzrPHWa36IYgi7oIGNKABDWhAAxrQgAY0oAENaMppVuokCRpR9wg4wAEOcIADHOAABzjAAQ5wgFMHR70GWPaELa/pBVKQghSkIAUpSEEKUpCCFKQgBSlInwdpZTHFjDQvjghSkIIUpCAFKUhBClKQghSkIAUpSJ8HqVYF1ow6r6gKalCDGtSgBjWoQQ1qUIMa1KAGNahB/YjUcyw3cm7blWJ3VuIlPj8bOxNuJfwuab94F06juBpjtnrkJ3494ZGTTCPO2m+3hEaFyPY2e+W6zGGZFrv1kjGLw2vO3EHFkfHNyHImE7GgSEtYb21VHDDfLCdJonwJmb2e5kFiwZe++kFxMhPrrgi8rhMMx2HUul/sRFPjMgyS7i33RuNEaFyEvquukV+d305PXndfdz+NeXQdxomTsDOeTEIvFX7HncQLRi+2yq7Xy+14GHmT5CfpPi+3Xe/m4WbpMXKxVIt57nFrKNz5JD1/xwt4dN4ftFjWKcct14snvjM78gKxHk73wg+HX39syflS0fwUWDKbpMeLftm+cm6c/NfSI8WWLdJzM2LH87V4An57djNqt/65ythhO2Jpm/SPypG0sKDL579WifqulJ9sHdWe1V9Y7ymv9be02lSJTp9IZ0Cks0Oks0uks0eks0+kc0Ckc0iks7TUppEQlUfbVC5tU/m0TeXUNpVX21RubVP5tU3l2DaVZ/epPLtPNldTeXafyrP7Wp69WkhJKaJF3NWQkfaRnoy0h/RkpP2jJyMd93oy0lGvJyMd83oy0hGvJyMd73oy8kCmqUPkx/IwpqlD5MnyIKapQ+TL8hCmqUPkzfIApqlD5M/y8KWpQzUvE/mzPHZp6qj780phCqWwJSpXaOhIu0dTR9o9mjrS7tHUkQ53TR3pcNfUkQ53TR3pcNfUkQ53TR15/NIVovJoeQTTFaLyaXkM0xWi8mp5FNMVovJreRzTFaLybHkk0xUim6upPFsezHSFKjwbi79j8fdCSOEwLP6+smHxdxUsLP6Oxd/rbFj8XWxY/B2Lv2cbFn8v3xOLv1cLiA2Lvz+PNRKBAxzgAAc4wAEOcIADHOAA59njPLGlE0EDGtCABjSgAQ1oQAMa0IDm+dA8rTUSgQMc4AAHOMABDnCAAxzgAOdJ4TxiMTRUP3tS1c/OhmPuTtNeFp9DxTxhg+dR7WznGVQ721ljtbPeLlG5MwOhAZXQDpXQLpXQHpXQPpXQAZXQIZXQd1/bmyiR+bZN5tw2mXfbZO5tk/m3TebgNpmH22QubpP5eJ/Mx/t08zeZj/fJfLyv5+M6VdAWtUzKoNXXkfeSSSG0+jryWcCkFFp9HfkMYFIMrb6OfPQblUMzEKLy6JLwZlQRzUCIyqlLYptRUTQDISq/LglsRnXRDGZGKs8uiWpGpdEMhKg8uySkmVRHW9QxKo9mICTvIqMCaQZC8sFvVCLNQEg++I2KpBkIyQe/WZk0EyUy3y6JbGaV0kyUyNy7JLiZFUszUSLz8JL4ZlYvzWSuJPPxkhBnVjLNRInMx0uiHKqmoWoaqqatEKJqmthQNQ1V01A1rWRD1TRUTdM6K1RNW7KvsT+qpi1uqJp2vzXwktYTKy4AHOAABzjAAQ5wgAMc4AAHOM8e54nVHAANaEADGtCABjSgAQ1oQAOa50Pzt6l1ABzgAAc4wAEOcIADHOAABzj17aFqWrGhatq8atrO86iatvsMqqbtrq1q2l72TWjdCjdUQgMqoR0qoV0qoT0qoX0qoQMqoUMqoaWP782UyHzbJnNum8y7bTL3tsn82yZzcJvMw20yF7fJfLxP5uN9uvmbzMf7ZD7e1/Nx9appy1r1q6aZ6Mh7qX7VNBMd+SxQv2qaiY58BqhfNc1ERz76DaqmGQlReXRJeDOommYkROXUJbHNoGqakRCVX5cENoOqaUYzI5Vnl0Q1g6ppRkJUnl0S0upXTVvWMaiaZiQk7yKDqmlGQvLBb1A1zUhIPvgNqqYZCckHv0nVNDMlMt8uiWwmVdPMlMjcuyS4mVRNM1Mi8/CS+GZSNc1sriTz8ZIQZ1I1zUyJzMdLohyqpqFqGqqmrRCiaprYUDUNVdNQNa1kQ9U0VE3TOitUTVuyr7E/qqYtbqiadr818JLWEysuABzgAAc4wAEOcIADHOAABzjPHueJ1RwADWhAAxrQgAY0oAENaEADmudD87epdQAc4AAHOMABDnCAAxzgAAc49e2halqxoWravGra7vOomrb3DKqm7a2talrP6pMUTTPRGRDp7BDp7BLp7BHp7BPpHBDpHBLpLH1zbyRE5dE2lUvbVD5tUzm1TeXVNpVb21R+bVM5tk3l2X0qz+6TzdVUnt2n8uy+lmerV0dbkqpfHM1ARtpD9UujGchIx339wmgGMtIxX78smoGMdLwbFEUz0SHyY3kYM6iIZqJD5MryGGZQDs1Eh8ib5QHMoBaayTxI5M/y6GVQCM1Eh8if5aGrfhW0JRmDImgmOtLuMSiBZqIjHe4GBdBMdKTD3aD8mYmOdLibFD8zEqLyaHkEM6l8ZiRE5dTyIGZS9sxIiMqv5XHMpOaZ0cxI5dnyUGZS8MxIiMqz5dEM1c5Q7QzVzlYIUe1MbKh2hmpnqHZWsqHaGaqdaZ0Vqp0t2dfYH9XOFjdUO7vfGni56okVBQAOcIADHOAABzjAAQ5wgAOcZ4/zxGoFgAY0oAENaEADGtCABjSgAc3zofnb1CgADnCAAxzgAAc4wAEOcIADnPr2UO2s2FDtbF7tbO95VDvbfwbVzvbXWO2st0tU7sxAaEAltEMltEsltEcltE8ldEAldEgl9N3X9iZKZL5tkzm3TebdNpl722T+bZM5uE3m4TaZi9tkPt4n8/E+3fxN5uN9Mh/v6/m4ThW0RS2TMmj1deS9ZFIIrb6OfBYwKYVWX0c+A5gUQ6uvIx/9RuXQDISoPLokvBlVRDMQonLqkthmVBTNQIjKr0sCm1FdNIOZkcqzS6KaUWk0AyEqzy4JaSbV0RZ1jMqjGQjJu8ioQJqBkHzwG5VIMxCSD36jImkGQvLBb1YmzUSJzLdLIptZpTQTJTL3LgluZsXSTJTIPLwkvpnVSzOZK8l8vCTEmZVMM1Ei8/GSKIeqaaiahqppK4SomiY2VE1D1TRUTSvZUDUNVdO0zgpV05bsa+yPqmmLG6qm3W8NvKT1xIoLAAc4wAEOcIADHOAABzjAAc6zx3liNQdAAxrQgAY0oAENaEADGtCA5vnQ/G1qHQAHOMABDnCAAxzgAAc4wAFOfXuomlZsqJo2r5q2/zyqph08g6ppB2urmraXfRNat8INldCASmiHSmiXSmiPSmifSuiASuiQSmjp43szJTLftsmc2ybzbpvMvW0y/7bJHNwm83CbzMVtMh/vk/l4n27+JvPxPpmP9/V8XL1q2rJW/appJjryXqpfNc1ERz4L1K+aZqIjnwHqV00z0ZGPfoOqaUZCVB5dEt4MqqYZCVE5dUlsM6iaZiRE5dclgc2gaprRzEjl2SVRzaBqmpEQlWeXhLT6VdOWdQyqphkJybvIoGqakZB88BtUTTMSkg9+g6ppRkLywW9SNc1Micy3SyKbSdU0MyUy9y4JbiZV08yUyDy8JL6ZVE0zmyvJfLwkxJlUTTNTIvPxkiiHqmmomoaqaSuEqJomNlRNQ9U0VE0r2VA1DVXTtM4KVdOW7Gvsj6ppixuqpt1vDbyk9cSKCwAHOMABDnCAAxzgAAc4wAHOs8d5YjUHQAMa0IAGNKABDWhAAxrQgOb50Pxtah0ABzjAAQ5wgAMc4AAHOMABTn17qJpWbKiaNq+advA8qqYdPoOqaYdrq5pm7/Ss3sJm75DUUCOUHTQju9OM7G4zsnvNyO43I3vQjOxhM7JLn/5T6jY0zuyGBprd0EizGxpqdkNjzW5osNkNjTa7oeFmNzTe+g2Nt35Tca2h8dZvaLz1TcabehW6MuX6NenoVFV7t369OjpV1Zmsfi07OlXVWax+nTs6VdUZzKAGHqFsM6NLOV0wqJZHKNvMAFPOFQzq6hHKNjPGlBMFgwp8hFGhmVGmnCUY1OojlG1mlCmnCPWr+pWpGtT4I5RV7VqD+n+EsqoTmEFtQEJZ1QnMoG4goazqBGZSU5BSt6FxppwpmFQfpNRtaKgpJwsmdQopdRsabcr5gklFQ8o40dB4U04ZTGofUuo2NN6UswZUSUSVRFRJXCFElUSxoUoiqiSiSmLJhiqJqJKodVaokrhkX2N/VElc3FAl8X5r4KXMJ1ZMBDjAAQ5wgAMc4AAHOMABDnCePc4TqzECGtCABjSgAQ1oQAMa0IAGNM+H5m9T2wQ4wAEOcIADHOAABzjAAQ5w6tt7hCqJn/j1hEdOMo04a7/dQtHEp1U0kUc33pCz/zjC896H4YSJCybec97pvX0WBRQHvadfQDFlXFsBRfH3upWaiHQGRDo7RDq7RDp7RDr7RDoHRDqHRDrLBQZMhKg82qZyaZvKp20qp7apvNqmcmubyq9tKse2qTy7T+XZfbK5msqz+1Se3dfybI3CfotSBpX86stIe8igVl99Gem4N6jGV19GOuYN6u3Vl5GOd5OKegY6RH4sD2MmRfIMdIhcWR7DTOreGegQebM8gJmUsjOYB4n8WR69TKrTGegQ+bM8dBkUnFuUMakwZ6Aj7R6TGnIGOtLhblIlzkBHOtxN6sAZ6EiHu1GlNxMhKo+WRzCj4m0mQlROLQ9iRvXYTISo/Foex4xKrJnMjFSeLQ9lRlXTTISoPFsezVaEfo+8MPKSGbNZl7XPpsGWKEm11/3fTtDt2d3s72/4sDuwZWGut/QPvVevdnYODwlMyP91S2Zi0PxZ7DRvYrd5E3vNm9hv3sRB8yYOmzexFNmbsrGG8V1yY5bOhvzOFp0N+U0vOhvyO710NuQ3gelsyO8P09mQ3zqmsyG/q0wX/+Q3nOlsyO9F09lYwzgvuYNNZ6NeKO9nNpxEZqOn9hh3MOj3D/YITMivBpkJeVpFZkJ+LchMyNMqMhPytIrMhDytIjMhT6vITMjTKjITJWkVnY01jO+StIrOhny6pbMhT6vobMjTKjob8rSKzoY8raKzIU+r6GzI0yq6+CdPq+hsrCOOr2Gcl6RVdDbqjfOBsPE28iQ2xHrFKmmVbe/vDwYEJvrS6EFmQp5WkZmQp1VkJuRpFZkJeVpFZkKeVpGZkKdVZCbkaRWZiZK0is7GGsZ3SVpFZ0M+3dLZkE+3dDbkaRWdDXlaRWdDnlbR2ZCnVXQ25GkVXfyTp1V0NtYRx9cwzkvSKjob9cb5jrDxaTyV2ThQS6sO0233NYEJeVpFZkKeVpGZkKdVZCbkaRWZCXlaRWZCnlaRmZCnVWQm5GkVmYmStIrOxhrGd0laRWdDPt3S2ZBPt3Q25GkVnQ15WkVnQ55W0dmQp1V0NuRpFV38k6dVdDbWEcfXMM5L0io6G/XG+a6w8R/uymzsq6VVb96cnOzvE5iQp1VkJuRpFZkJeVpFZkKeVpGZkKdVZCbkaRWZCXlaRWZCnlaRmShJq+hsrGF8l6RVdDbk0y2dDfl0S2dDnlbR2ZCnVXQ25GkVnQ15WkVnQ55W0cU/eVpFZ2MdcXwN47wkraKzUW+c72Wp25TLbOyppVUnJ3t7JCbkaRWZCXlaRWZCnlaRmZCnVWQm5GkVmQl5WkVmQp5WkZmQp1VkJkrSKjobaxjfJWkVnQ35dEtnQz7d0tmQp1V0NuRpFZ0NeVpFZ0OeVtHZkKdVdPFPnlbR2VhHHF/DOC9Jq+hs1Bvn+8LGr6Hstfj+rlpadXDQ7+/uEpiQp1VkJuRpFZkJeVpFZkKeVpGZkKdVZCbkaRWZCXlaRWZCnlaRmShJq+hsrGF8l5Zoo7JRVuOKykZZ+SsqG2U136hslJWDo7JRVimOykZZETkqG2X15ajiX1npOSob64jjaxjnpbXsqGxUj/MvKhVei5rM7JgF/HZeQDarG9uOb0adrAJsZanYeWHnmCevw2ngxu3dXofZ9m6HDcTf+rtq5WbvUoz7otSue+IkfBRGs1d3XpyXRb4/f4Xq0anAh8jl0cepqFKsfKDgmC1z/MqdeBrxHEMUWi76veHy3GhGM5rRjGY0oxnNaEYzmtGMZjSjGc1oRjOa0YxmNKMZzWhGM5rRjGY0oxnNaEYzmtGMZjSjGc1oRjOa0YxmNKMZzWhGM5rRjGY0oxnNaN6o5pkV3vAo8lz+qyM+rLWtnuH3quLT2Hj509gzHnk8Lj6vbXXmHxBP/DCxfC/glZ/Ixg99p1v9ZW1sZUvPT0LfSbwwSKFaccIn3Qt+GUa8pfbl83s+4oG7fEL5b+29XocNxJfLPfEhs/ij5fPLRIBVSM9lrfMRT06DRPRPauJyGgwz0vYW+7NCYk7I74/+XPktt9i8S9ZOxl5sxdlVUTMktoWDrLT/Tp3huP0XsK7aHF98Op6yF7rnkzD2hOCb9GeVs5lvQuYBqii81UOaY3mBy8V46NodzaPn21XdAy897gt/axd9mo+TURROJ9xlP/zA/lH8fmedj524+P5dDLCtxdbZg61ph1jOaPRW2LB8HoySMXvJ+uzfrPXK91vsaHmP2PeGvN21tz73vmxVjreVMwkj1r5KT6X3I7tKzRSuWtgVv/0rnXH0L5DYhBsXep+vvlhf+YwdHx/nnVdPMVMtLvuV7qnOt4uIO1/rHPxN8xjd/UV/FWd3LNxaOEPhKVkhB+vciWNvFHD3RJSIiD9nPfmlXlfOL/RkGo/bda9FekmP8utZfyT5/pHKWVpiz7pW4iQKv3I1O/m+dS2FE2foJTM1U8XOtc8qMzE3VVdlPpEsTyt1hof25CO2+XBennhYl9m6ajrDTZ31WyeLqkr7f6vKKcS2vc1+/+MT+++HPz6ysw8fP/3y28/s/Yeffzlh704/nqoJvE1nbX7niBSNJSGLwyhhwfQ69YMhy0qaxMyJh2ny4gUjBcV53wudhcjsdNiF+uQS8WQaBWziRDF/64dO0nbElL+VXsqF3y6y35Q6szpFWzBbnEKV8LdmK73c55/ZcM8Ge/uFyy+dqZ+wSRSmcxh/0WEv/nlwcHJyevqi4cIzwAEOcIADHOAABzjAAQ5wgLOZOCyeXqf/BGYuFz8y15kJooi7oAENaEADGtCABjSgAQ1oQAOacprb7NWs72gu/CkHDnCAAxzgAAc4wAEOcIADHODUwblfN9AW6waeTWXrBg7s7Anbq1c7O4eHIAUpSEEKUpCCFKQgBSlIQQpSkIL0eZD2M1InkZH2MtLBoN8/2AMpSEEKUpCCFKQgBSlIQQpSkIIUpM+DdCBI30aehLR/mJHa9v7+YABSkIIUpCAFKUhBClKQghSkIAUpSJ8H6Y4g/TSeykgPMtLDdNt9DVKQghSkIAUpSEEKUpCCFKQgBSlInwfpriD9D3dlpPsZ6Zs3Jyf7+yAFKUhBClKQghSkIAUpSEEKUpCC9HmQ7mV3JqZcRrqXkZ6c7O2BFKQgBSlIQQpSkIIUpCAFKUhBCtLnQrovSH8NZZUF+7sZ6cFBv7+7C1KQghSkIAUpSEEKUpCCFKQgBSlI10Y6R3Ej57ZdKXZnJV7i87OxM+FWwu+S9ot34TSKqzFmq0e+8a55EHth4PM4U6iQ2N5mr1yXOSxTYrdeMmZxeM2ZO6g4Mr4ZWc5kwgO33RK2W1sVB8w3y0mSqN26a3XYXk/zoFl6UF/9oDiZ+TzH6zrBcBxG6fEtn19q0BYal2GQdG+5NxonQuMi9F11jfzanE26b7zAC0bsbBZ3B+ytH3VtdjYcd1+zd7/7w+ukG4fT9AL8z2/st9OT12K3hF+zAfv97H/Yh+FQ7Ptiq+ySvtyOh5E3SX6S7vNy2/VuHm6WHiMXS7WY5x63hsLfT9IucryAR+cDu8WyfjtuuV488Z3ZkRf4aVP3wg+HX39syflS0fwUWDKbpMeLrtu+cm6c/NfSI8V240TCNdkxc73ric+tgN+e3YzarX+uMnbYTq+X/VE51ISs6yROqvv5z5bvXHC/ddRy+aUz9RM2icJLz+etTt5yftc6sq1ep3Xj+FPeOto7tA4XtoPDTmso5qdUIZ1yTk5OT1vfOkqq/UZUB42o7jSiutuI6l4jqvuNqB40onrYiKrda0a2mdFlNzO87GbGl93MALObGWF2M0PMbmaM2c0MMruZUdZvZpT1G4phzYyyfjOjrG8wylg8vb5eWvK7RoYQcVdDVLFv9UQVe1ZPVLFf9UQV5y49UcWZS09Ucd7SE1WctfREFecsPVHVxEBTtZExpZoWaKo2MqpUkwJN1UbGlWpKoKnayMhSTQg0VRsZW6rpgKZqM/GqkbGlmgtoqtYdW7dekJimARdiB3VVxW7VVFXsVk1VxW7VVFWcsjRVFacsTVXFKUtTVXHK0lRVnLI0VVXzAV3ZZkaXakagK9vM+FLNCXRlmxlhqlmBrmwzY0w1L9CVbWaUqWYGurINxbBmRplqcqArqzXKvqg8cCieI7JjFvDb+fOM7DFGO74ZdbIHEpVPLuYPI2OevA6ngRu3d3sdZtu7HTYQf+vvqj39uEsx7p+xuu6Jk/BRGM1e3Xlx/jDvvisUnnimAh8il0cfp+LZmvKBgmO2zPErd+JpxHMM8XiwuASmz3Cz50jLps545PG4wE0tFRdk4oeJJR5uVZqMHzrvatLYyvxuEvpO4oVBCtWKEz7pXvDLMOItNU96z0c8cJdPKP+tvZd6wUB4gngYZos/ikeklU+P57LW+Ygnp0Ei+ic1cTkNhhlpe4v9qfCMVBDy+6M/V44NsXmXrJ2MvTj1a3GcmiGxLRxkpf136gzH7b+AddXm+MWzwUL3fBLGnhB8k/6scjbzTcg8QBWFt3pIcywvcLkYuF27o3n0fLuqe+Clx33hb+2iT/NxMorC6YS77Icf2D+K3++s87ETF/OJGGBbi62zB1vTDrGc0eitsGH5PBglY/aS9dm/WeuV77fY0fIese8Nebtrb33ufdmqHG8rZxJGrH2VnkrvR3aVmilctbArfvvXMbP1L5DYhBsXep+vvlhfeTq9HR/nnVdPMVMtLvuV7qnOt4uIO1/rHPxN8xjd/UV/FWd3LNxaOEPhKVlgtM7z93+4m70BFH/OevJLva6cX+jJNB63616L9JIe5dez/kjy/SOVs7TEnnWtxEkUfuVqdvJ961oKJ87QS2Zqpoqda59VZmJuqq7KfCJZnlbqDA/tyUds8+G8PPGwLrN11XSGmzrrt04WVZX2/1aVU4hte5v9/scn9t8Pf3xkZx8+fvrlt5/Z+w8//3LC3p1+PFUTeJvO2vzOESkaS0IWh2kiHUyvUz8YsixFjJkTD9PkxQtGCorzvhc6C5HZ6bAL9ckl4sk0CtjEiWL+1g+dpO2IKX8rvZQLv11kvyl1ZnWKtmC2OIUq4W+P8J7mdw9gi5cxxQPVR3ltFDjAAQ5wgAMc4AAHOMABDnCePc7qCy6CKOIuaEADGtCABjSgAQ1oQAMa0ICmnGbllUBBI17xAw5wgAMc4AAHOMABDnCAAxzgPGJ1xE/8esIjJ5lGnLXfbqE+4pOqj/gfR3jcO57936vrC48HCROXTNQ95O407f8u2++9fR4lEPvPoARif20lELMPT+uWYCLSGRDp7BDp7BLp7BHp7BPpHBDpHBLpLNUWMBKi8mibyqVtKp+2qZzapvJqm8qtbSq/tqkc26by7D6VZ/fJ5moqz+5TeXZfy7PVS/YtSdUv0mcgI+2h+oX4DGSk475+sT0DGemYr19Qz0BGOt4NiuaZ6BD5sTyMGZTCM9EhcmV5DDMocGeiQ+TN8gBmULbOZB4k8md59DIoRmeiQ+TP8tBVv8TckoxBUTkTHWn3GBSOM9GRDneD4nAmOtLhblAAzkRHOtxNirwZCVF5tDyCmZRuMxKicmp5EDMpyGYkROXX8jhmUmbNaGak8mx5KDMpnmYkROXZ8miGkmjPoiQamtGMZjSjGc1oRjOa0YxmNKMZzWhGM5qfUvPMCm94FHku/9URN6psq4eS+AtngpL49xtK4mttKImPkvgaG0rif7+hJP73G0ria24oiY+S+A9uKIkPHOAABzjAAQ5wgAMc4AAHOMB5DgUlQQMa0IAGNKABDWhAAxrQgOb50PxtClkCBzjAAQ5wgAMc4AAHOMABTn17j1AS/413zYPYCwOfxzEK4j+tgvhh9JWdXl56Q48Hw9l9Gfz1FsAv9v6uZfG/53/P//9evfjL/f9dhO5M/P84ufZ/+l//DxQ6Yx8="
               },
               {
                  "name" : "annual_peak_electric_demand",
                  "units" : "kW",
                  "value" : 17.172730000000001
               },
               {
                  "name" : "first_year_capital_cost",
                  "units" : "$",
                  "value" : 0
               },
               {
                  "name" : "annual_utility_cost",
                  "units" : "$",
                  "value" : 10999.599999999999
               },
               {
                  "name" : "total_lifecycle_cost",
                  "units" : "$",
                  "value" : 191321.81
               }
            ],
            "step_warnings" : []
         }
      }
   ],
   "updated_at" : "20170710T184813Z",
   "weather_file" : "USA_CO_Denver.Intl.AP.725650_TMY3.epw"
}
