{
   "completed_at" : "20170710T190518Z",
   "completed_status" : "Success",
   "created_at" : "2017-07-10 19:03:15 +0000",
   "current_step" : 5,
   "description" : "",
   "eplusout_err" : "Program Version,EnergyPlus, Version 8.7.0-78a111df4a, YMD=2017.07.10 19:04,IDD_Version 8.7.0\n   ************* IDF Context for following error/warning message:\n   ************* Note -- lines truncated at 300 characters, if necessary...\n   *************      5 Building,\n   ************* indicated Name=NECB 2011-SmallOffice-NECB HDD Method-CAN_NS_Greenwood.713970_CWEC.epw created: 2017-07-10 19:03:20 +0000\n   ************* Only last 1 lines before error line shown.....\n   *************      6   NECB 2011-SmallOffice-NECB HDD Method-CAN_NS_Greenwood.713970_CWEC.epw created: 2017-07-10 19:03:20 +0000, !- Name\n   ** Warning ** IP: IDF line~6 Alpha Argument length exceeds maximum, will be truncated=  NECB 2011-SmallOffice-NECB HDD Method-CAN_NS_Greenwood.713970_CWEC.epw created: 2017-07-10 19:03:20 +000\n   **   ~~~   ** Will be processed as Alpha=NECB 2011-SMALLOFFICE-NECB HDD METHOD-CAN_NS_GREENWOOD.713970_CWEC.EPW CREATED: 2017-07-10 19:03:20 +0000\n   ************* Beginning Zone Sizing Calculations\n   ** Warning ** ProcessScheduleInput: Schedule:Day:Interval=\"ECONOMIZER MAX OA FRACTION 100 PCT DEFAULT\", Blank Schedule Type Limits Name input -- will not be validated.\n   ** Warning ** ProcessScheduleInput: Schedule:Day:Interval=\"SCHEDULE DAY 1\", Blank Schedule Type Limits Name input -- will not be validated.\n   ** Warning ** ProcessScheduleInput: Schedule:Day:Interval=\"SCHEDULE DAY 10\", Blank Schedule Type Limits Name input -- will not be validated.\n   ** Warning ** ProcessScheduleInput: Schedule:Day:Interval=\"SCHEDULE DAY 11\", Blank Schedule Type Limits Name input -- will not be validated.\n   ** Warning ** ProcessScheduleInput: Schedule:Day:Interval=\"SCHEDULE DAY 12\", Blank Schedule Type Limits Name input -- will not be validated.\n   ** Warning ** ProcessScheduleInput: Schedule:Day:Interval=\"SCHEDULE DAY 13\", Blank Schedule Type Limits Name input -- will not be validated.\n   ** Warning ** ProcessScheduleInput: Schedule:Day:Interval=\"SCHEDULE DAY 14\", Blank Schedule Type Limits Name input -- will not be validated.\n   ** Warning ** ProcessScheduleInput: Schedule:Day:Interval=\"SCHEDULE DAY 15\", Blank Schedule Type Limits Name input -- will not be validated.\n   ** Warning ** ProcessScheduleInput: Schedule:Day:Interval=\"SCHEDULE DAY 16\", Blank Schedule Type Limits Name input -- will not be validated.\n   ** Warning ** ProcessScheduleInput: Schedule:Day:Interval=\"SCHEDULE DAY 17\", Blank Schedule Type Limits Name input -- will not be validated.\n   ** Warning ** ProcessScheduleInput: Schedule:Day:Interval=\"SCHEDULE DAY 18\", Blank Schedule Type Limits Name input -- will not be validated.\n   ** Warning ** ProcessScheduleInput: Schedule:Day:Interval=\"SCHEDULE DAY 19\", Blank Schedule Type Limits Name input -- will not be validated.\n   ** Warning ** ProcessScheduleInput: Schedule:Day:Interval=\"SCHEDULE DAY 2\", Blank Schedule Type Limits Name input -- will not be validated.\n   ** Warning ** ProcessScheduleInput: Schedule:Day:Interval=\"SCHEDULE DAY 5\", Blank Schedule Type Limits Name input -- will not be validated.\n   ** Warning ** ProcessScheduleInput: Schedule:Day:Interval=\"SCHEDULE DAY 6\", Blank Schedule Type Limits Name input -- will not be validated.\n   ** Warning ** ProcessScheduleInput: Schedule:Day:Interval=\"SCHEDULE DAY 7\", Blank Schedule Type Limits Name input -- will not be validated.\n   ** Warning ** ProcessScheduleInput: Schedule:Day:Interval=\"SCHEDULE DAY 8\", Blank Schedule Type Limits Name input -- will not be validated.\n   ** Warning ** ProcessScheduleInput: Schedule:Day:Interval=\"SCHEDULE DAY 9\", Blank Schedule Type Limits Name input -- will not be validated.\n   ** Warning ** ProcessScheduleInput: Schedule:Year=\"ECONOMIZER MAX OA FRACTION 100 PCT\", Blank Schedule Type Limits Name input -- will not be validated.\n   ** Warning ** ProcessScheduleInput: Schedule:Year=\"SCHEDULE RULESET 10\", Blank Schedule Type Limits Name input -- will not be validated.\n   ** Warning ** ProcessScheduleInput: Schedule:Year=\"SCHEDULE RULESET 11\", Blank Schedule Type Limits Name input -- will not be validated.\n   ** Warning ** ProcessScheduleInput: Schedule:Year=\"SCHEDULE RULESET 12\", Blank Schedule Type Limits Name input -- will not be validated.\n   ** Warning ** ProcessScheduleInput: Schedule:Year=\"SCHEDULE RULESET 13\", Blank Schedule Type Limits Name input -- will not be validated.\n   ** Warning ** ProcessScheduleInput: Schedule:Year=\"SCHEDULE RULESET 14\", Blank Schedule Type Limits Name input -- will not be validated.\n   ** Warning ** ProcessScheduleInput: Schedule:Year=\"SCHEDULE RULESET 15\", Blank Schedule Type Limits Name input -- will not be validated.\n   ** Warning ** ProcessScheduleInput: Schedule:Year=\"SCHEDULE RULESET 16\", Blank Schedule Type Limits Name input -- will not be validated.\n   ** Warning ** ProcessScheduleInput: Schedule:Year=\"SCHEDULE RULESET 17\", Blank Schedule Type Limits Name input -- will not be validated.\n   ** Warning ** ProcessScheduleInput: Schedule:Year=\"SCHEDULE RULESET 3\", Blank Schedule Type Limits Name input -- will not be validated.\n   ** Warning ** ProcessScheduleInput: Schedule:Year=\"SCHEDULE RULESET 4\", Blank Schedule Type Limits Name input -- will not be validated.\n   ** Warning ** ProcessScheduleInput: Schedule:Year=\"SCHEDULE RULESET 5\", Blank Schedule Type Limits Name input -- will not be validated.\n   ** Warning ** ProcessScheduleInput: Schedule:Year=\"SCHEDULE RULESET 6\", Blank Schedule Type Limits Name input -- will not be validated.\n   ** Warning ** ProcessScheduleInput: Schedule:Year=\"SCHEDULE RULESET 7\", Blank Schedule Type Limits Name input -- will not be validated.\n   ** Warning ** ProcessScheduleInput: Schedule:Year=\"SCHEDULE RULESET 8\", Blank Schedule Type Limits Name input -- will not be validated.\n   ** Warning ** ProcessScheduleInput: Schedule:Year=\"SCHEDULE RULESET 9\", Blank Schedule Type Limits Name input -- will not be validated.\n   ** Warning ** ProcessScheduleInput: Schedule:Constant=\"ALWAYS OFF DISCRETE\", Blank Schedule Type Limits Name input -- will not be validated.\n   ** Warning ** ProcessScheduleInput: Schedule:Constant=\"ALWAYS ON CONTINUOUS\", Blank Schedule Type Limits Name input -- will not be validated.\n   ** Warning ** CheckUsedConstructions: There are 22 nominally unused constructions in input.\n   **   ~~~   ** For explicit details on each unused construction, use Output:Diagnostics,DisplayExtraWarnings;\n   ************* Beginning System Sizing Calculations\n   ************* Beginning Plant Sizing Calculations\n   ** Warning ** GetDXCoils: Coil:Cooling:DX:SingleSpeed=\"COIL COOLING DX SINGLE SPEED 5 16KBTU/HR 14.0SEER\", invalid\n   **   ~~~   ** ...Part Load Fraction Correlation Curve Name = DXCOOL-NECB2011-REF-COOLPLFFPLR 4 has out of range value.\n   **   ~~~   ** ...Curve maximum must be <= 1.0, curve max at PLR = 0.99 is 1.015\n   **   ~~~   ** ...Setting curve maximum to 1.0 and simulation continues.\n   ** Warning ** GetDXCoils: Coil:Cooling:DX:SingleSpeed=\"COIL COOLING DX SINGLE SPEED 4 16KBTU/HR 14.0SEER\", invalid\n   **   ~~~   ** ...Part Load Fraction Correlation Curve Name = DXCOOL-NECB2011-REF-COOLPLFFPLR 3 has out of range value.\n   **   ~~~   ** ...Curve maximum must be <= 1.0, curve max at PLR = 0.99 is 1.015\n   **   ~~~   ** ...Setting curve maximum to 1.0 and simulation continues.\n   ** Warning ** GetDXCoils: Coil:Cooling:DX:SingleSpeed=\"COIL COOLING DX SINGLE SPEED 2 16KBTU/HR 14.0SEER\", invalid\n   **   ~~~   ** ...Part Load Fraction Correlation Curve Name = DXCOOL-NECB2011-REF-COOLPLFFPLR 1 has out of range value.\n   **   ~~~   ** ...Curve maximum must be <= 1.0, curve max at PLR = 0.99 is 1.015\n   **   ~~~   ** ...Setting curve maximum to 1.0 and simulation continues.\n   ** Warning ** GetDXCoils: Coil:Cooling:DX:SingleSpeed=\"COIL COOLING DX SINGLE SPEED 1 14KBTU/HR 14.0SEER\", invalid\n   **   ~~~   ** ...Part Load Fraction Correlation Curve Name = DXCOOL-NECB2011-REF-COOLPLFFPLR has out of range value.\n   **   ~~~   ** ...Curve maximum must be <= 1.0, curve max at PLR = 0.99 is 1.015\n   **   ~~~   ** ...Setting curve maximum to 1.0 and simulation continues.\n   ** Warning ** GetDXCoils: Coil:Cooling:DX:SingleSpeed=\"COIL COOLING DX SINGLE SPEED 3 17KBTU/HR 14.0SEER\", invalid\n   **   ~~~   ** ...Part Load Fraction Correlation Curve Name = DXCOOL-NECB2011-REF-COOLPLFFPLR 2 has out of range value.\n   **   ~~~   ** ...Curve maximum must be <= 1.0, curve max at PLR = 0.99 is 1.015\n   **   ~~~   ** ...Setting curve maximum to 1.0 and simulation continues.\n   ** Warning ** The Standard Ratings is calculated for Coil:Cooling:DX:SingleSpeed = COIL COOLING DX SINGLE SPEED 5 16KBTU/HR 14.0SEER but not at the AHRI test condition due to curve out of bound.\n   **   ~~~   **  Review the Standard Ratings calculations in the Engineering Reference for this coil type. Also, use Output:Diagnostics, DisplayExtraWarnings for further guidance.\n   ** Warning ** The Standard Ratings is calculated for Coil:Cooling:DX:SingleSpeed = COIL COOLING DX SINGLE SPEED 4 16KBTU/HR 14.0SEER but not at the AHRI test condition due to curve out of bound.\n   **   ~~~   **  Review the Standard Ratings calculations in the Engineering Reference for this coil type. Also, use Output:Diagnostics, DisplayExtraWarnings for further guidance.\n   ** Warning ** The Standard Ratings is calculated for Coil:Cooling:DX:SingleSpeed = COIL COOLING DX SINGLE SPEED 2 16KBTU/HR 14.0SEER but not at the AHRI test condition due to curve out of bound.\n   **   ~~~   **  Review the Standard Ratings calculations in the Engineering Reference for this coil type. Also, use Output:Diagnostics, DisplayExtraWarnings for further guidance.\n   ** Warning ** The Standard Ratings is calculated for Coil:Cooling:DX:SingleSpeed = COIL COOLING DX SINGLE SPEED 1 14KBTU/HR 14.0SEER but not at the AHRI test condition due to curve out of bound.\n   **   ~~~   **  Review the Standard Ratings calculations in the Engineering Reference for this coil type. Also, use Output:Diagnostics, DisplayExtraWarnings for further guidance.\n   ** Warning ** The Standard Ratings is calculated for Coil:Cooling:DX:SingleSpeed = COIL COOLING DX SINGLE SPEED 3 17KBTU/HR 14.0SEER but not at the AHRI test condition due to curve out of bound.\n   **   ~~~   **  Review the Standard Ratings calculations in the Engineering Reference for this coil type. Also, use Output:Diagnostics, DisplayExtraWarnings for further guidance.\n   ** Warning ** Check input. Pump nominal power or motor efficiency is set to 0, for pump=SERVICE WATER LOOP PUMP\n   ** Warning ** Output:Meter: invalid Name=\"DISTRICTCOOLING:FACILITY\" - not found.\n   ** Warning ** Output:Meter: invalid Name=\"DISTRICTHEATING:FACILITY\" - not found.\n   ** Warning ** Output:Meter:MeterFileOnly requested for \"Electricity:Facility\" (TimeStep), already on \"Output:Meter\". Will report to both eplusout.eso and eplusout.mtr\n   ************* Testing Individual Branch Integrity\n   ************* All Branches passed integrity testing\n   ************* Testing Individual Supply Air Path Integrity\n   ************* All Supply Air Paths passed integrity testing\n   ************* Testing Individual Return Air Path Integrity\n   ************* All Return Air Paths passed integrity testing\n   ************* No node connection errors were found.\n   ************* Beginning Simulation\n   ** Warning ** CalcDoe2DXCoil: Coil:Cooling:DX:SingleSpeed \"COIL COOLING DX SINGLE SPEED 4 16KBTU/HR 14.0SEER\" - Air-cooled condenser inlet dry-bulb temperature below 0 C. Outdoor dry-bulb temperature = -16.65\n   **   ~~~   **  ... Occurrence info = RUN PERIOD 1, 01/01 11:15 - 11:30\n   **   ~~~   ** ... Operation at low ambient temperatures may require special performance curves.\n   ** Warning ** CalcDoe2DXCoil: Coil:Cooling:DX:SingleSpeed \"COIL COOLING DX SINGLE SPEED 4 16KBTU/HR 14.0SEER\" - Full load outlet air dry-bulb temperature < 2C. This indicates the possibility of coil frost/freeze. Outlet temperature = -2.17 C.\n   **   ~~~   **  ...Occurrence info = RUN PERIOD 1, 01/01 11:15 - 11:30\n   **   ~~~   ** ... Possible reasons for low outlet air dry-bulb temperatures are: This DX coil\n   **   ~~~   **    1) may have a low inlet air dry-bulb temperature. Inlet air temperature = 11.840 C.\n   **   ~~~   **    2) may have a low air flow rate per watt of cooling capacity. Check inputs.\n   **   ~~~   **    3) is used as part of a HX assisted cooling coil which uses a high sensible effectiveness. Check inputs.\n   ** Warning ** CalcDoe2DXCoil: Coil:Cooling:DX:SingleSpeed \"COIL COOLING DX SINGLE SPEED 2 16KBTU/HR 14.0SEER\" - Air-cooled condenser inlet dry-bulb temperature below 0 C. Outdoor dry-bulb temperature = -0.98\n   **   ~~~   **  ... Occurrence info = RUN PERIOD 1, 01/02 06:03 - 06:05\n   **   ~~~   ** ... Operation at low ambient temperatures may require special performance curves.\n   ** Warning ** CalcDoe2DXCoil: Coil:Cooling:DX:SingleSpeed \"COIL COOLING DX SINGLE SPEED 1 14KBTU/HR 14.0SEER\" - Air-cooled condenser inlet dry-bulb temperature below 0 C. Outdoor dry-bulb temperature = -0.98\n   **   ~~~   **  ... Occurrence info = RUN PERIOD 1, 01/02 06:03 - 06:05\n   **   ~~~   ** ... Operation at low ambient temperatures may require special performance curves.\n   ** Warning ** CalcDoe2DXCoil: Coil:Cooling:DX:SingleSpeed \"COIL COOLING DX SINGLE SPEED 1 14KBTU/HR 14.0SEER\" - Full load outlet air dry-bulb temperature < 2C. This indicates the possibility of coil frost/freeze. Outlet temperature = 1.55 C.\n   **   ~~~   **  ...Occurrence info = RUN PERIOD 1, 01/02 06:03 - 06:05\n   **   ~~~   ** ... Possible reasons for low outlet air dry-bulb temperatures are: This DX coil\n   **   ~~~   **    1) may have a low inlet air dry-bulb temperature. Inlet air temperature = 15.651 C.\n   **   ~~~   **    2) may have a low air flow rate per watt of cooling capacity. Check inputs.\n   **   ~~~   **    3) is used as part of a HX assisted cooling coil which uses a high sensible effectiveness. Check inputs.\n   ** Warning ** CalcDoe2DXCoil: Coil:Cooling:DX:SingleSpeed \"COIL COOLING DX SINGLE SPEED 3 17KBTU/HR 14.0SEER\" - Air-cooled condenser inlet dry-bulb temperature below 0 C. Outdoor dry-bulb temperature = -0.98\n   **   ~~~   **  ... Occurrence info = RUN PERIOD 1, 01/02 06:03 - 06:05\n   **   ~~~   ** ... Operation at low ambient temperatures may require special performance curves.\n   ** Warning ** CalcDoe2DXCoil: Coil:Cooling:DX:SingleSpeed \"COIL COOLING DX SINGLE SPEED 5 16KBTU/HR 14.0SEER\" - Full load outlet air dry-bulb temperature < 2C. This indicates the possibility of coil frost/freeze. Outlet temperature = 1.66 C.\n   **   ~~~   **  ...Occurrence info = RUN PERIOD 1, 01/03 21:30 - 21:35\n   **   ~~~   ** ... Possible reasons for low outlet air dry-bulb temperatures are: This DX coil\n   **   ~~~   **    1) may have a low inlet air dry-bulb temperature. Inlet air temperature = 15.633 C.\n   **   ~~~   **    2) may have a low air flow rate per watt of cooling capacity. Check inputs.\n   **   ~~~   **    3) is used as part of a HX assisted cooling coil which uses a high sensible effectiveness. Check inputs.\n   ** Warning ** CalcDoe2DXCoil: Coil:Cooling:DX:SingleSpeed \"COIL COOLING DX SINGLE SPEED 5 16KBTU/HR 14.0SEER\" - Air-cooled condenser inlet dry-bulb temperature below 0 C. Outdoor dry-bulb temperature = -1.70\n   **   ~~~   **  ... Occurrence info = RUN PERIOD 1, 01/04 21:15 - 21:18\n   **   ~~~   ** ... Operation at low ambient temperatures may require special performance curves.\n   ** Warning ** CalcDoe2DXCoil: Coil:Cooling:DX:SingleSpeed \"COIL COOLING DX SINGLE SPEED 2 16KBTU/HR 14.0SEER\" - Full load outlet air dry-bulb temperature < 2C. This indicates the possibility of coil frost/freeze. Outlet temperature = 1.77 C.\n   **   ~~~   **  ...Occurrence info = RUN PERIOD 1, 01/06 21:30 - 21:35\n   **   ~~~   ** ... Possible reasons for low outlet air dry-bulb temperatures are: This DX coil\n   **   ~~~   **    1) may have a low inlet air dry-bulb temperature. Inlet air temperature = 14.412 C.\n   **   ~~~   **    2) may have a low air flow rate per watt of cooling capacity. Check inputs.\n   **   ~~~   **    3) is used as part of a HX assisted cooling coil which uses a high sensible effectiveness. Check inputs.\n   ************* Simulation Error Summary *************\n   ************* There are 9 unused schedules in input.\n   ************* There are 9 unused week schedules in input.\n   ************* There are 12 unused day schedules in input.\n   ************* Use Output:Diagnostics,DisplayUnusedSchedules; to see them.\n   *************\n   ************* ===== Recurring Error Summary =====\n   ************* The following recurring error messages occurred.\n   *************\n   *************  ** Warning ** CalcDoe2DXCoil: Coil:Cooling:DX:SingleSpeed=\"COIL COOLING DX SINGLE SPEED 4 16KBTU/HR 14.0SEER\" - Low condenser dry-bulb temperature error continues...\n   *************  **   ~~~   **   This error occurred 762 total times;\n   *************  **   ~~~   **   during Warmup 0 times;\n   *************  **   ~~~   **   during Sizing 0 times.\n   *************  **   ~~~   **   Max=-5.000000E-002 [C]  Min=-21.525 [C]\n   *************\n   *************  ** Warning ** CalcDoe2DXCoil: Coil:Cooling:DX:SingleSpeed=\"COIL COOLING DX SINGLE SPEED 4 16KBTU/HR 14.0SEER\" - Full load outlet temperature indicates a possibility of frost/freeze error continues. Outlet air temperature statistics follow:\n   *************  **   ~~~   **   This error occurred 318 total times;\n   *************  **   ~~~   **   during Warmup 0 times;\n   *************  **   ~~~   **   during Sizing 0 times.\n   *************  **   ~~~   **   Max=1.997098  Min=-2.169025\n   *************\n   *************  ** Warning ** CalcDoe2DXCoil: Coil:Cooling:DX:SingleSpeed=\"COIL COOLING DX SINGLE SPEED 2 16KBTU/HR 14.0SEER\" - Low condenser dry-bulb temperature error continues...\n   *************  **   ~~~   **   This error occurred 572 total times;\n   *************  **   ~~~   **   during Warmup 0 times;\n   *************  **   ~~~   **   during Sizing 0 times.\n   *************  **   ~~~   **   Max=-2.500000E-002 [C]  Min=-21.525 [C]\n   *************\n   *************  ** Warning ** CalcDoe2DXCoil: Coil:Cooling:DX:SingleSpeed=\"COIL COOLING DX SINGLE SPEED 1 14KBTU/HR 14.0SEER\" - Low condenser dry-bulb temperature error continues...\n   *************  **   ~~~   **   This error occurred 359 total times;\n   *************  **   ~~~   **   during Warmup 0 times;\n   *************  **   ~~~   **   during Sizing 0 times.\n   *************  **   ~~~   **   Max=-5.000000E-002 [C]  Min=-18.175 [C]\n   *************\n   *************  ** Warning ** CalcDoe2DXCoil: Coil:Cooling:DX:SingleSpeed=\"COIL COOLING DX SINGLE SPEED 1 14KBTU/HR 14.0SEER\" - Full load outlet temperature indicates a possibility of frost/freeze error continues. Outlet air temperature statistics follow:\n   *************  **   ~~~   **   This error occurred 290 total times;\n   *************  **   ~~~   **   during Warmup 0 times;\n   *************  **   ~~~   **   during Sizing 0 times.\n   *************  **   ~~~   **   Max=1.998195  Min=-2.082616\n   *************\n   *************  ** Warning ** CalcDoe2DXCoil: Coil:Cooling:DX:SingleSpeed=\"COIL COOLING DX SINGLE SPEED 3 17KBTU/HR 14.0SEER\" - Low condenser dry-bulb temperature error continues...\n   *************  **   ~~~   **   This error occurred 547 total times;\n   *************  **   ~~~   **   during Warmup 0 times;\n   *************  **   ~~~   **   during Sizing 0 times.\n   *************  **   ~~~   **   Max=-5.000000E-002 [C]  Min=-21.525 [C]\n   *************\n   *************  ** Warning ** CalcDoe2DXCoil: Coil:Cooling:DX:SingleSpeed=\"COIL COOLING DX SINGLE SPEED 5 16KBTU/HR 14.0SEER\" - Full load outlet temperature indicates a possibility of frost/freeze error continues. Outlet air temperature statistics follow:\n   *************  **   ~~~   **   This error occurred 318 total times;\n   *************  **   ~~~   **   during Warmup 0 times;\n   *************  **   ~~~   **   during Sizing 0 times.\n   *************  **   ~~~   **   Max=1.996243  Min=-2.678969\n   *************\n   *************  ** Warning ** CalcDoe2DXCoil: Coil:Cooling:DX:SingleSpeed=\"COIL COOLING DX SINGLE SPEED 5 16KBTU/HR 14.0SEER\" - Low condenser dry-bulb temperature error continues...\n   *************  **   ~~~   **   This error occurred 278 total times;\n   *************  **   ~~~   **   during Warmup 0 times;\n   *************  **   ~~~   **   during Sizing 0 times.\n   *************  **   ~~~   **   Max=-0.1 [C]  Min=-14.4 [C]\n   *************\n   *************  ** Warning ** CalcDoe2DXCoil: Coil:Cooling:DX:SingleSpeed=\"COIL COOLING DX SINGLE SPEED 2 16KBTU/HR 14.0SEER\" - Full load outlet temperature indicates a possibility of frost/freeze error continues. Outlet air temperature statistics follow:\n   *************  **   ~~~   **   This error occurred 1 total times;\n   *************  **   ~~~   **   during Warmup 0 times;\n   *************  **   ~~~   **   during Sizing 0 times.\n   *************  **   ~~~   **   Max=1.773398  Min=1.773398\n   *************\n   *************\n   ************* ===== Final Error Summary =====\n   ************* The following error categories occurred.  Consider correcting or noting.\n   ************* Nominally Unused Constructions\n   ************* ..The nominally unused constructions warning is provided to alert you to potential conditions that can cause\n   ************* ..extra time during simulation. Each construction is calculated by the algorithm indicated in the HeatBalanceAlgorithm\n   ************* ..object. You may remove the constructions indicated (when you use the DisplayExtraWarnings option).\n   *************\n   ************* EnergyPlus Warmup Error Summary. During Warmup: 0 Warning; 0 Severe Errors.\n   ************* EnergyPlus Sizing Error Summary. During Sizing: 37 Warning; 0 Severe Errors.\n   ************* EnergyPlus Completed Successfully-- 3497 Warning; 0 Severe Errors; Elapsed Time=00hr 00min 38.79sec\n",
   "file_format_version" : "0.0.1",
   "file_paths" : [ "../weather", "../seeds", "../seed" ],
   "hash" : "B839C096",
   "measure_paths" : [ "../measures" ],
   "name" : "LHS Autogenerated 636",
   "osa_id" : "4fef0e0f-5396-4c55-a6e1-2cd6803db3ab",
   "osd_id" : "ece4e971-484b-422b-a15c-3ee7544b2fed",
   "run_directory" : "./run",
   "seed_file" : "seed.osm",
   "started_at" : "20170710T190318Z",
   "steps" : [
      {
         "arguments" : {
            "__SKIP__" : false,
            "building_type" : "SmallOffice",
            "climate_zone" : "NECB HDD Method",
            "epw_file" : "CAN_NS_Greenwood.713970_CWEC.epw",
            "template" : "NECB 2011"
         },
         "measure_dir_name" : "create_prototype_building",
         "name" : "create_prototype_building",
         "result" : {
            "completed_at" : "20170710T190408Z",
            "measure_class_name" : "CreatePrototypeBuilding",
            "measure_display_name" : "Create Prototype Building",
            "measure_name" : "create_prototype_building",
            "measure_taxonomy" : "Whole Building.Space Types",
            "measure_type" : "ModelMeasure",
            "measure_uid" : "ae90fsd7-a651-467a-bc8d-29d310b0f937",
            "measure_version_id" : "c6ec5c18-5595-459f-a082-09a19c8c869c",
            "measure_version_modified" : "20170519T182315Z",
            "measure_xml_checksum" : "057E8D9D",
            "started_at" : "20170710T190320Z",
            "stderr" : "",
            "stdout" : "[OpenStudio.Measure] <0> OSArgumentVector is deprecated, use OpenStudio::Measure::OSArgumentVector instead.\n[openstudio.EpwFile] <0> Successive data points (1972-Jan-31 to 1970-Feb-01, ending on line 753) are greater than 1 day apart in EPW file '/usr/local/bundle/bundler/gems/openstudio-standards-f448df66933d/openstudio-standards/data/weather/CAN_NS_Greenwood.713970_CWEC.epw'. Data will be treated as typical (TMY)\n[openstudio.setFileExtension] <0> Path p, '/usr/local/bundle/bundler/gems/openstudio-standards-f448df66933d/openstudio-standards/data/weather/CAN_NS_Greenwood.713970_CWEC.ddy', has an unexpected file extension. Was expecting 'idf'.\n[openstudio.model.YearDescription] <1> 'UseWeatherFile' is not yet a supported option for YearDescription\n[openstudio.model.YearDescription] <1> 'UseWeatherFile' is not yet a supported option for YearDescription\n[openstudio.setFileExtension] <0> Path p, '/usr/local/bundle/bundler/gems/openstudio-standards-f448df66933d/openstudio-standards/data/weather/CAN_NS_Greenwood.713970_CWEC.ddy', has an unexpected file extension. Was expecting 'idf'.\n[openstudio.model.YearDescription] <1> 'UseWeatherFile' is not yet a supported option for YearDescription\n[openstudio.model.YearDescription] <1> 'UseWeatherFile' is not yet a supported option for YearDescription\n[openstudio.EpwFile] <0> Successive data points (1972-Jan-31 to 1970-Feb-01, ending on line 753) are greater than 1 day apart in EPW file '/usr/local/bundle/bundler/gems/openstudio-standards-f448df66933d/openstudio-standards/data/weather/CAN_NS_Greenwood.713970_CWEC.epw'. Data will be treated as typical (TMY)\n[openstudio.weather.Model] <0> Could not find ground temperatures; will use generic temperatures, which will skew results.\n[openstudio.setFileExtension] <0> Path p, '/usr/local/bundle/bundler/gems/openstudio-standards-f448df66933d/openstudio-standards/data/weather/CAN_NS_Greenwood.713970_CWEC.ddy', has an unexpected file extension. Was expecting 'idf'.\n[openstudio.model.YearDescription] <1> 'UseWeatherFile' is not yet a supported option for YearDescription\n[openstudio.model.YearDescription] <1> 'UseWeatherFile' is not yet a supported option for YearDescription\n[openstudio.EpwFile] <0> Successive data points (1972-Jan-31 to 1970-Feb-01, ending on line 753) are greater than 1 day apart in EPW file '/usr/local/bundle/bundler/gems/openstudio-standards-f448df66933d/openstudio-standards/data/weather/CAN_NS_Greenwood.713970_CWEC.epw'. Data will be treated as typical (TMY)\n[openstudio.setFileExtension] <0> Path p, '/usr/local/bundle/bundler/gems/openstudio-standards-f448df66933d/openstudio-standards/data/weather/CAN_NS_Greenwood.713970_CWEC.ddy', has an unexpected file extension. Was expecting 'idf'.\n[openstudio.model.YearDescription] <1> 'UseWeatherFile' is not yet a supported option for YearDescription\n[openstudio.model.YearDescription] <1> 'UseWeatherFile' is not yet a supported option for YearDescription\n[openstudio.setFileExtension] <0> Path p, '/usr/local/bundle/bundler/gems/openstudio-standards-f448df66933d/openstudio-standards/data/weather/CAN_NS_Greenwood.713970_CWEC.ddy', has an unexpected file extension. Was expecting 'idf'.\n[openstudio.model.YearDescription] <1> 'UseWeatherFile' is not yet a supported option for YearDescription\n[openstudio.model.YearDescription] <1> 'UseWeatherFile' is not yet a supported option for YearDescription\n[openstudio.EpwFile] <0> Successive data points (1972-Jan-31 to 1970-Feb-01, ending on line 753) are greater than 1 day apart in EPW file '/usr/local/bundle/bundler/gems/openstudio-standards-f448df66933d/openstudio-standards/data/weather/CAN_NS_Greenwood.713970_CWEC.epw'. Data will be treated as typical (TMY)\n[openstudio.setFileExtension] <0> Path p, '/usr/local/bundle/bundler/gems/openstudio-standards-f448df66933d/openstudio-standards/data/weather/CAN_NS_Greenwood.713970_CWEC.ddy', has an unexpected file extension. Was expecting 'idf'.\n[openstudio.model.YearDescription] <1> 'UseWeatherFile' is not yet a supported option for YearDescription\n[openstudio.model.YearDescription] <1> 'UseWeatherFile' is not yet a supported option for YearDescription\n[openstudio.setFileExtension] <0> Path p, '/usr/local/bundle/bundler/gems/openstudio-standards-f448df66933d/openstudio-standards/data/weather/CAN_NS_Greenwood.713970_CWEC.ddy', has an unexpected file extension. Was expecting 'idf'.\n[openstudio.model.YearDescription] <1> 'UseWeatherFile' is not yet a supported option for YearDescription\n[openstudio.model.YearDescription] <1> 'UseWeatherFile' is not yet a supported option for YearDescription\n[utilities.idf.WorkspaceObject] <0> Object of type 'Schedule:Constant' and named 'Always Off Discrete', points to an object named OnOff 1 from field 1, but that object cannot be located.\n[utilities.idf.WorkspaceObject] <0> Object of type 'Schedule:Constant' and named 'Always On Continuous', points to an object named Fractional 1 from field 1, but that object cannot be located.\n[utilities.idf.WorkspaceObject] <0> Object of type 'Schedule:Constant' and named 'Always Off Discrete', points to an object named OnOff 1 from field 1, but that object cannot be located.\n[utilities.idf.WorkspaceObject] <0> Object of type 'Schedule:Constant' and named 'Always On Continuous', points to an object named Fractional 1 from field 1, but that object cannot be located.\n[openstudio.standards.Fan] <0> For Fan Constant Volume 1, there is no greater nominal HP.  Use the efficiency of the largest motor category.\n[openstudio.standards.Fan] <0> For Fan Constant Volume 2, there is no greater nominal HP.  Use the efficiency of the largest motor category.\n[openstudio.standards.Fan] <0> For Fan Constant Volume 3, there is no greater nominal HP.  Use the efficiency of the largest motor category.\n[openstudio.standards.Fan] <0> For Fan Constant Volume 4, there is no greater nominal HP.  Use the efficiency of the largest motor category.\n[openstudio.standards.Fan] <0> For Fan Constant Volume 5, there is no greater nominal HP.  Use the efficiency of the largest motor category.\n[openstudio.EpwFile] <0> Successive data points (1972-Jan-31 to 1970-Feb-01, ending on line 753) are greater than 1 day apart in EPW file '/usr/local/bundle/bundler/gems/openstudio-standards-f448df66933d/openstudio-standards/data/weather/CAN_NS_Greenwood.713970_CWEC.epw'. Data will be treated as typical (TMY)\n[openstudio.setFileExtension] <0> Path p, '/usr/local/bundle/bundler/gems/openstudio-standards-f448df66933d/openstudio-standards/data/weather/CAN_NS_Greenwood.713970_CWEC.ddy', has an unexpected file extension. Was expecting 'idf'.\n[openstudio.model.YearDescription] <1> 'UseWeatherFile' is not yet a supported option for YearDescription\n[openstudio.model.YearDescription] <1> 'UseWeatherFile' is not yet a supported option for YearDescription\n[openstudio.setFileExtension] <0> Path p, '/usr/local/bundle/bundler/gems/openstudio-standards-f448df66933d/openstudio-standards/data/weather/CAN_NS_Greenwood.713970_CWEC.ddy', has an unexpected file extension. Was expecting 'idf'.\n[openstudio.model.YearDescription] <1> 'UseWeatherFile' is not yet a supported option for YearDescription\n[openstudio.model.YearDescription] <1> 'UseWeatherFile' is not yet a supported option for YearDescription\n[openstudio.EpwFile] <0> Successive data points (1972-Jan-31 to 1970-Feb-01, ending on line 753) are greater than 1 day apart in EPW file '/usr/local/bundle/bundler/gems/openstudio-standards-f448df66933d/openstudio-standards/data/weather/CAN_NS_Greenwood.713970_CWEC.epw'. Data will be treated as typical (TMY)\n[openstudio.setFileExtension] <0> Path p, '/usr/local/bundle/bundler/gems/openstudio-standards-f448df66933d/openstudio-standards/data/weather/CAN_NS_Greenwood.713970_CWEC.ddy', has an unexpected file extension. Was expecting 'idf'.\n[openstudio.model.YearDescription] <1> 'UseWeatherFile' is not yet a supported option for YearDescription\n[openstudio.model.YearDescription] <1> 'UseWeatherFile' is not yet a supported option for YearDescription\n[openstudio.setFileExtension] <0> Path p, '/usr/local/bundle/bundler/gems/openstudio-standards-f448df66933d/openstudio-standards/data/weather/CAN_NS_Greenwood.713970_CWEC.ddy', has an unexpected file extension. Was expecting 'idf'.\n[openstudio.model.YearDescription] <1> 'UseWeatherFile' is not yet a supported option for YearDescription\n[openstudio.model.YearDescription] <1> 'UseWeatherFile' is not yet a supported option for YearDescription\n[openstudio.EpwFile] <0> Successive data points (1972-Jan-31 to 1970-Feb-01, ending on line 753) are greater than 1 day apart in EPW file '/usr/local/bundle/bundler/gems/openstudio-standards-f448df66933d/openstudio-standards/data/weather/CAN_NS_Greenwood.713970_CWEC.epw'. Data will be treated as typical (TMY)\n[openstudio.setFileExtension] <0> Path p, '/usr/local/bundle/bundler/gems/openstudio-standards-f448df66933d/openstudio-standards/data/weather/CAN_NS_Greenwood.713970_CWEC.ddy', has an unexpected file extension. Was expecting 'idf'.\n[openstudio.model.YearDescription] <1> 'UseWeatherFile' is not yet a supported option for YearDescription\n[openstudio.model.YearDescription] <1> 'UseWeatherFile' is not yet a supported option for YearDescription\n[openstudio.setFileExtension] <0> Path p, '/usr/local/bundle/bundler/gems/openstudio-standards-f448df66933d/openstudio-standards/data/weather/CAN_NS_Greenwood.713970_CWEC.ddy', has an unexpected file extension. Was expecting 'idf'.\n[openstudio.model.YearDescription] <1> 'UseWeatherFile' is not yet a supported option for YearDescription\n[openstudio.model.YearDescription] <1> 'UseWeatherFile' is not yet a supported option for YearDescription\n[openstudio.EpwFile] <0> Successive data points (1972-Jan-31 to 1970-Feb-01, ending on line 753) are greater than 1 day apart in EPW file '/usr/local/bundle/bundler/gems/openstudio-standards-f448df66933d/openstudio-standards/data/weather/CAN_NS_Greenwood.713970_CWEC.epw'. Data will be treated as typical (TMY)\n[openstudio.setFileExtension] <0> Path p, '/usr/local/bundle/bundler/gems/openstudio-standards-f448df66933d/openstudio-standards/data/weather/CAN_NS_Greenwood.713970_CWEC.ddy', has an unexpected file extension. Was expecting 'idf'.\n[openstudio.model.YearDescription] <1> 'UseWeatherFile' is not yet a supported option for YearDescription\n[openstudio.model.YearDescription] <1> 'UseWeatherFile' is not yet a supported option for YearDescription\n[openstudio.setFileExtension] <0> Path p, '/usr/local/bundle/bundler/gems/openstudio-standards-f448df66933d/openstudio-standards/data/weather/CAN_NS_Greenwood.713970_CWEC.ddy', has an unexpected file extension. Was expecting 'idf'.\n[openstudio.model.YearDescription] <1> 'UseWeatherFile' is not yet a supported option for YearDescription\n[openstudio.model.YearDescription] <1> 'UseWeatherFile' is not yet a supported option for YearDescription\n[openstudio.EpwFile] <0> Successive data points (1972-Jan-31 to 1970-Feb-01, ending on line 753) are greater than 1 day apart in EPW file '/usr/local/bundle/bundler/gems/openstudio-standards-f448df66933d/openstudio-standards/data/weather/CAN_NS_Greenwood.713970_CWEC.epw'. Data will be treated as typical (TMY)\n[openstudio.setFileExtension] <0> Path p, '/usr/local/bundle/bundler/gems/openstudio-standards-f448df66933d/openstudio-standards/data/weather/CAN_NS_Greenwood.713970_CWEC.ddy', has an unexpected file extension. Was expecting 'idf'.\n[openstudio.model.YearDescription] <1> 'UseWeatherFile' is not yet a supported option for YearDescription\n[openstudio.model.YearDescription] <1> 'UseWeatherFile' is not yet a supported option for YearDescription\n[openstudio.setFileExtension] <0> Path p, '/usr/local/bundle/bundler/gems/openstudio-standards-f448df66933d/openstudio-standards/data/weather/CAN_NS_Greenwood.713970_CWEC.ddy', has an unexpected file extension. Was expecting 'idf'.\n[openstudio.model.YearDescription] <1> 'UseWeatherFile' is not yet a supported option for YearDescription\n[openstudio.model.YearDescription] <1> 'UseWeatherFile' is not yet a supported option for YearDescription\n[openstudio.standards.Fan] <0> For Fan Constant Volume 1, there is no greater nominal HP.  Use the efficiency of the largest motor category.\n[openstudio.standards.Fan] <0> For Fan Constant Volume 2, there is no greater nominal HP.  Use the efficiency of the largest motor category.\n[openstudio.standards.Fan] <0> For Fan Constant Volume 3, there is no greater nominal HP.  Use the efficiency of the largest motor category.\n[openstudio.standards.Fan] <0> For Fan Constant Volume 4, there is no greater nominal HP.  Use the efficiency of the largest motor category.\n[openstudio.standards.Fan] <0> For Fan Constant Volume 5, there is no greater nominal HP.  Use the efficiency of the largest motor category.\n",
            "step_errors" : [],
            "step_files" : [],
            "step_info" : [
               "Started adding geometry",
               "Finished adding geometry",
               "Started adding weather file for climate zone: NECB HDD Method.",
               "Template =",
               "Setting Attic to Space Function.- undefined -",
               "Setting Core_ZN to Space Function.Office - enclosed",
               "Setting Perimeter_ZN_1 to Space Function.Office - enclosed",
               "Setting Perimeter_ZN_2 to Space Function.Office - enclosed",
               "Setting Perimeter_ZN_3 to Space Function.Office - enclosed",
               "Setting Perimeter_ZN_4 to Space Function.Office - enclosed",
               "Started applying space types (loads)",
               "Space Function - undefined - had no ventilation specification, one has been created.",
               "Space Function - undefined - had no infiltration objects, one has been created.",
               "Space Function - undefined - set infiltration to 0.0 per ft^2 exterior surface area.",
               "Space Function - undefined - set infiltration schedule to Always On.",
               "Space Function Office - enclosed had no people, one has been created.",
               "Space Function Office - enclosed set occupancy to 4.65 people/1000 ft^2.",
               "Space Function Office - enclosed had no lights, one has been created.",
               "Space Function Office - enclosed set LPD to 1.105536975 W/ft^2.",
               "Space Function Office - enclosed had no electric equipment, one has been created.",
               "Space Function Office - enclosed set electric EPD to 0.696767001 W/ft^2.",
               "Space Function Office - enclosed had no ventilation specification, one has been created.",
               "Space Function Office - enclosed set ventilation per area to 0.085 cfm/ft^2.",
               "Space Function Office - enclosed had no infiltration objects, one has been created.",
               "Space Function Office - enclosed set infiltration to 0.0 per ft^2 exterior surface area.",
               "Space Function Office - enclosed set occupancy schedule to NECB-A-Occupancy.",
               "Space Function Office - enclosed set occupant activity schedule to NECB-Activity.",
               "Space Function Office - enclosed set lighting schedule to NECB-A-Lighting.",
               "Space Function Office - enclosed set electric equipment schedule to NECB-A-Electric-Equipment.",
               "Space Function Office - enclosed set infiltration schedule to Always On.",
               "Space Function Office - enclosed set heating setpoint schedule to NECB-A-Thermostat Setpoint-Heating.",
               "Space Function Office - enclosed set cooling setpoint schedule to NECB-A-Thermostat Setpoint-Cooling.",
               "Finished applying space types (loads)",
               "For NECB 2011, no exterior wall area was found, no infiltration will be added.",
               "Started applying constructions",
               "Adding construction set: NECB 2011-NECB HDD Method-Office--is_residentialNo",
               "Adding construction Typical Insulated Exterior Mass Floor R-15.63.",
               "Adding construction Typical Insulated Exterior Mass Wall R-12.5.",
               "Adding construction Typical Insulated Metal Building Roof R-20.41.",
               "Adding construction Typical Interior Floor.",
               "Adding construction Typical Interior Wall.",
               "Adding construction Typical Interior Ceiling.",
               "Adding construction Typical Insulated Carpeted 6in Slab Floor.",
               "Adding construction U 0.55 SHGC 0.31 Dbl Ref-D Tint 6mm/6mm Air.",
               "Adding construction Typical Insulated Metal Door R-1.43.",
               "Adding construction U 0.35 SHGC 0.35 Dbl LoE (e2-.1) Tint 6mm/13mm Air.",
               "Adding construction Typical Overhead Door R-2.0.",
               "Adding construction U 0.48 SHGC 0.40 Dbl Ref-D Clr 6mm/13mm.",
               "Adding construction Typical Interior Window.",
               "Adding construction Typical Interior Door.",
               "Adding construction Typical Interior Partition.",
               "Finished applying constructions",
               "WWR NonRes = 0%; window = 0 ft2, wall = 0 ft2.",
               "WWR Res = 0%; window = 0 ft2, wall = 0 ft2.",
               "WWR Semiheated = 0%; window = 0 ft2, wall = 0 ft2.",
               "The skylight to roof ratios (SRRs) are: NonRes: 0%, Res: 0%.",
               "Started creating thermal zones",
               "Finished creating thermal zones",
               "Running simulation /mnt/openstudio/analysis_4fef0e0f-5396-4c55-a6e1-2cd6803db3ab/data_point_ece4e971-484b-422b-a15c-3ee7544b2fed/run/000_create_prototype_building/output/SmallOffice-NECB 2011-NECB HDD Method-CAN_NS_Greenwood.713970_CWEC.epw/SR0.",
               "Finished run.",
               "Started Adding HVAC",
               "Finished adding HVAC",
               "Started Adding Service Water Heating",
               "Adding service water loop.",
               "Adding water heater.",
               "Template =",
               "Finished adding Service Water Heating",
               "Set sizing factors to 1.3 for heating and 1.3 for cooling.",
               "Running simulation /mnt/openstudio/analysis_4fef0e0f-5396-4c55-a6e1-2cd6803db3ab/data_point_ece4e971-484b-422b-a15c-3ee7544b2fed/run/000_create_prototype_building/output/SmallOffice-NECB 2011-NECB HDD Method-CAN_NS_Greenwood.713970_CWEC.epw/SR1.",
               "Finished run.",
               "Started applying multizone vav OA sizing.",
               "Finished applying multizone vav OA sizing.",
               "Started applying prototype HVAC assumptions.",
               "For Fan Constant Volume 1: allowed_hp = 1.01HP; motor eff = 61.5%; total fan eff = 40% based on 521 cfm.",
               "For Fan Constant Volume 2: allowed_hp = 1.01HP; motor eff = 61.5%; total fan eff = 40% based on 584 cfm.",
               "For Fan Constant Volume 3: allowed_hp = 1.01HP; motor eff = 61.5%; total fan eff = 40% based on 655 cfm.",
               "For Fan Constant Volume 4: allowed_hp = 1.01HP; motor eff = 61.5%; total fan eff = 40% based on 569 cfm.",
               "For Fan Constant Volume 5: allowed_hp = 1.01HP; motor eff = 61.5%; total fan eff = 40% based on 557 cfm.",
               "Sp-Perimeter_ZN_4 Sys-3 Flr-1 Sch-A HPlcmt-west ZN NECB System 3 PSZ does not require an economizer because the total cooling capacity of 17467 Btu/hr is less than the minimum capacity of 68243 Btu/hr.",
               "Sp-Perimeter_ZN_3 Sys-3 Flr-1 Sch-A HPlcmt-north ZN NECB System 3 PSZ does not require an economizer because the total cooling capacity of 14417 Btu/hr is less than the minimum capacity of 68243 Btu/hr.",
               "Sp-Perimeter_ZN_2 Sys-3 Flr-1 Sch-A HPlcmt-east ZN NECB System 3 PSZ does not require an economizer because the total cooling capacity of 15567 Btu/hr is less than the minimum capacity of 68243 Btu/hr.",
               "Sp-Core_ZN Sys-3 Flr-1 Sch-A HPlcmt-core ZN NECB System 3 PSZ does not require an economizer because the total cooling capacity of 15876 Btu/hr is less than the minimum capacity of 68243 Btu/hr.",
               "Sp-Perimeter_ZN_1 Sys-3 Flr-1 Sch-A HPlcmt-south ZN NECB System 3 PSZ does not require an economizer because the total cooling capacity of 15645 Btu/hr is less than the minimum capacity of 68243 Btu/hr.",
               "Finished applying prototype HVAC assumptions.",
               "Started applying HVAC efficiency standards.",
               "For Sp-Core_ZN Sys-3 Flr-1 Sch-A HPlcmt-core ZN NECB System 3 PSZ, ERV not required based on 0% OA flow, design supply air flow of 557cfm, and climate zone NECB HDD Method.",
               "For Sp-Core_ZN Sys-3 Flr-1 Sch-A HPlcmt-core ZN NECB System 3 PSZ, ERV not required based on exhaust heat content.",
               "For NECB 2011 NECB HDD Method:  Sp-Core_ZN Sys-3 Flr-1 Sch-A HPlcmt-core ZN NECB System 3 PSZ: DCV is not required for any system.",
               "For Sp-Core_ZN Sys-3 Flr-1 Sch-A HPlcmt-core ZN NECB System 3 PSZ: Unoccupied fan shutoff not required because system fan HP of 0.56 HP is less than the minimum threshold of 0.75 HP.",
               "For Sp-Core_ZN Sys-3 Flr-1 Sch-A HPlcmt-core ZN NECB System 3 PSZ: Setting motorized OA damper schedule to Always On Discrete.",
               "For Sp-Perimeter_ZN_1 Sys-3 Flr-1 Sch-A HPlcmt-south ZN NECB System 3 PSZ, ERV not required based on 0% OA flow, design supply air flow of 569cfm, and climate zone NECB HDD Method.",
               "For Sp-Perimeter_ZN_1 Sys-3 Flr-1 Sch-A HPlcmt-south ZN NECB System 3 PSZ, ERV not required based on exhaust heat content.",
               "For NECB 2011 NECB HDD Method:  Sp-Perimeter_ZN_1 Sys-3 Flr-1 Sch-A HPlcmt-south ZN NECB System 3 PSZ: DCV is not required for any system.",
               "For Sp-Perimeter_ZN_1 Sys-3 Flr-1 Sch-A HPlcmt-south ZN NECB System 3 PSZ: Unoccupied fan shutoff not required because system fan HP of 0.58 HP is less than the minimum threshold of 0.75 HP.",
               "For Sp-Perimeter_ZN_1 Sys-3 Flr-1 Sch-A HPlcmt-south ZN NECB System 3 PSZ: Setting motorized OA damper schedule to Always On Discrete.",
               "For Sp-Perimeter_ZN_2 Sys-3 Flr-1 Sch-A HPlcmt-east ZN NECB System 3 PSZ, ERV not required based on 0% OA flow, design supply air flow of 584cfm, and climate zone NECB HDD Method.",
               "For Sp-Perimeter_ZN_2 Sys-3 Flr-1 Sch-A HPlcmt-east ZN NECB System 3 PSZ, ERV not required based on exhaust heat content.",
               "For NECB 2011 NECB HDD Method:  Sp-Perimeter_ZN_2 Sys-3 Flr-1 Sch-A HPlcmt-east ZN NECB System 3 PSZ: DCV is not required for any system.",
               "For Sp-Perimeter_ZN_2 Sys-3 Flr-1 Sch-A HPlcmt-east ZN NECB System 3 PSZ: Unoccupied fan shutoff not required because system fan HP of 0.59 HP is less than the minimum threshold of 0.75 HP.",
               "For Sp-Perimeter_ZN_2 Sys-3 Flr-1 Sch-A HPlcmt-east ZN NECB System 3 PSZ: Setting motorized OA damper schedule to Always On Discrete.",
               "For Sp-Perimeter_ZN_3 Sys-3 Flr-1 Sch-A HPlcmt-north ZN NECB System 3 PSZ, ERV not required based on 0% OA flow, design supply air flow of 521cfm, and climate zone NECB HDD Method.",
               "For Sp-Perimeter_ZN_3 Sys-3 Flr-1 Sch-A HPlcmt-north ZN NECB System 3 PSZ, ERV not required based on exhaust heat content.",
               "For NECB 2011 NECB HDD Method:  Sp-Perimeter_ZN_3 Sys-3 Flr-1 Sch-A HPlcmt-north ZN NECB System 3 PSZ: DCV is not required for any system.",
               "For Sp-Perimeter_ZN_3 Sys-3 Flr-1 Sch-A HPlcmt-north ZN NECB System 3 PSZ: Unoccupied fan shutoff not required because system fan HP of 0.53 HP is less than the minimum threshold of 0.75 HP.",
               "For Sp-Perimeter_ZN_3 Sys-3 Flr-1 Sch-A HPlcmt-north ZN NECB System 3 PSZ: Setting motorized OA damper schedule to Always On Discrete.",
               "For Sp-Perimeter_ZN_4 Sys-3 Flr-1 Sch-A HPlcmt-west ZN NECB System 3 PSZ, ERV not required based on 0% OA flow, design supply air flow of 655cfm, and climate zone NECB HDD Method.",
               "For Sp-Perimeter_ZN_4 Sys-3 Flr-1 Sch-A HPlcmt-west ZN NECB System 3 PSZ, ERV not required based on exhaust heat content.",
               "For NECB 2011 NECB HDD Method:  Sp-Perimeter_ZN_4 Sys-3 Flr-1 Sch-A HPlcmt-west ZN NECB System 3 PSZ: DCV is not required for any system.",
               "For Sp-Perimeter_ZN_4 Sys-3 Flr-1 Sch-A HPlcmt-west ZN NECB System 3 PSZ: Unoccupied fan shutoff not required because system fan HP of 0.66 HP is less than the minimum threshold of 0.75 HP.",
               "For Sp-Perimeter_ZN_4 Sys-3 Flr-1 Sch-A HPlcmt-west ZN NECB System 3 PSZ: Setting motorized OA damper schedule to Always On Discrete.",
               "For Fan Constant Volume 1: motor nameplate = 0.32429269945935246HP, motor eff = 61.5%.",
               "For Fan Constant Volume 2: motor nameplate = 0.36375873479649873HP, motor eff = 61.5%.",
               "For Fan Constant Volume 3: motor nameplate = 0.4081670109914907HP, motor eff = 61.5%.",
               "For Fan Constant Volume 4: motor nameplate = 0.35440154741678576HP, motor eff = 61.5%.",
               "For Fan Constant Volume 5: motor nameplate = 0.346832196889959HP, motor eff = 61.5%.",
               "For Service Water Loop Pump: brake hp = 0.0HP, motor nameplate = 0.1HP, motor eff = 70.0%.",
               "For Pump Variable Speed 1: brake hp = 0.1HP, motor nameplate = 1.0HP, motor eff = 85.5%.",
               "For NECB 2011: Coil Cooling DX Single Speed 1: AirCooled All Other Single Package Capacity = 14kBtu/hr; SEER = 14.0",
               "For NECB 2011: Coil Cooling DX Single Speed 2: AirCooled All Other Single Package Capacity = 16kBtu/hr; SEER = 14.0",
               "For NECB 2011: Coil Cooling DX Single Speed 3: AirCooled All Other Single Package Capacity = 17kBtu/hr; SEER = 14.0",
               "For NECB 2011: Coil Cooling DX Single Speed 4: AirCooled All Other Single Package Capacity = 16kBtu/hr; SEER = 14.0",
               "For NECB 2011: Coil Cooling DX Single Speed 5: AirCooled All Other Single Package Capacity = 16kBtu/hr; SEER = 14.0",
               "For NECB 2011: Primary Boiler: Gas Hot Water Capacity = 75kBtu/hr; AFUE = 0.85",
               "For NECB 2011: Secondary Boiler: Gas Hot Water Capacity = 0kBtu/hr; AFUE = 0.85",
               "For NECB 2011: 40.0gal NaturalGas Water Heater - 40kBtu/hr 0.82 Therm Eff; thermal efficiency = 0.82, skin-loss UA = 6Btu/hr",
               "Finished applying HVAC efficiency standards.",
               "Started adding daylighting controls.",
               "For Attic, daylighting control not applicable because no exterior fenestration is present.",
               "For Core_ZN, daylighting control not applicable because no exterior fenestration is present.",
               "Finished adding daylighting controls.",
               "Total Time = 47sec."
            ],
            "step_result" : "Success",
            "step_values" : [
               {
                  "name" : "building_type",
                  "value" : "SmallOffice"
               },
               {
                  "name" : "template",
                  "value" : "NECB 2011"
               },
               {
                  "name" : "climate_zone",
                  "value" : "NECB HDD Method"
               },
               {
                  "name" : "epw_file",
                  "value" : "CAN_NS_Greenwood.713970_CWEC.epw"
               }
            ],
            "step_warnings" : [
               "[openstudio.EpwFile] Successive data points (1972-Jan-31 to 1970-Feb-01, ending on line 753) are greater than 1 day apart in EPW file '/usr/local/bundle/bundler/gems/openstudio-standards-f448df66933d/openstudio-standards/data/weather/CAN_NS_Greenwood.713970_CWEC.epw'. Data will be treated as typical (TMY)",
               "[openstudio.EpwFile] Successive data points (1972-Jan-31 to 1970-Feb-01, ending on line 753) are greater than 1 day apart in EPW file '/usr/local/bundle/bundler/gems/openstudio-standards-f448df66933d/openstudio-standards/data/weather/CAN_NS_Greenwood.713970_CWEC.epw'. Data will be treated as typical (TMY)",
               "[openstudio.weather.Model] Could not find ground temperatures; will use generic temperatures, which will skew results.",
               "[openstudio.EpwFile] Successive data points (1972-Jan-31 to 1970-Feb-01, ending on line 753) are greater than 1 day apart in EPW file '/usr/local/bundle/bundler/gems/openstudio-standards-f448df66933d/openstudio-standards/data/weather/CAN_NS_Greenwood.713970_CWEC.epw'. Data will be treated as typical (TMY)",
               "[openstudio.EpwFile] Successive data points (1972-Jan-31 to 1970-Feb-01, ending on line 753) are greater than 1 day apart in EPW file '/usr/local/bundle/bundler/gems/openstudio-standards-f448df66933d/openstudio-standards/data/weather/CAN_NS_Greenwood.713970_CWEC.epw'. Data will be treated as typical (TMY)",
               "[openstudio.standards.Fan] For Fan Constant Volume 1, there is no greater nominal HP.  Use the efficiency of the largest motor category.",
               "[openstudio.standards.Fan] For Fan Constant Volume 2, there is no greater nominal HP.  Use the efficiency of the largest motor category.",
               "[openstudio.standards.Fan] For Fan Constant Volume 3, there is no greater nominal HP.  Use the efficiency of the largest motor category.",
               "[openstudio.standards.Fan] For Fan Constant Volume 4, there is no greater nominal HP.  Use the efficiency of the largest motor category.",
               "[openstudio.standards.Fan] For Fan Constant Volume 5, there is no greater nominal HP.  Use the efficiency of the largest motor category.",
               "[openstudio.EpwFile] Successive data points (1972-Jan-31 to 1970-Feb-01, ending on line 753) are greater than 1 day apart in EPW file '/usr/local/bundle/bundler/gems/openstudio-standards-f448df66933d/openstudio-standards/data/weather/CAN_NS_Greenwood.713970_CWEC.epw'. Data will be treated as typical (TMY)",
               "[openstudio.EpwFile] Successive data points (1972-Jan-31 to 1970-Feb-01, ending on line 753) are greater than 1 day apart in EPW file '/usr/local/bundle/bundler/gems/openstudio-standards-f448df66933d/openstudio-standards/data/weather/CAN_NS_Greenwood.713970_CWEC.epw'. Data will be treated as typical (TMY)",
               "[openstudio.EpwFile] Successive data points (1972-Jan-31 to 1970-Feb-01, ending on line 753) are greater than 1 day apart in EPW file '/usr/local/bundle/bundler/gems/openstudio-standards-f448df66933d/openstudio-standards/data/weather/CAN_NS_Greenwood.713970_CWEC.epw'. Data will be treated as typical (TMY)",
               "[openstudio.EpwFile] Successive data points (1972-Jan-31 to 1970-Feb-01, ending on line 753) are greater than 1 day apart in EPW file '/usr/local/bundle/bundler/gems/openstudio-standards-f448df66933d/openstudio-standards/data/weather/CAN_NS_Greenwood.713970_CWEC.epw'. Data will be treated as typical (TMY)",
               "[openstudio.EpwFile] Successive data points (1972-Jan-31 to 1970-Feb-01, ending on line 753) are greater than 1 day apart in EPW file '/usr/local/bundle/bundler/gems/openstudio-standards-f448df66933d/openstudio-standards/data/weather/CAN_NS_Greenwood.713970_CWEC.epw'. Data will be treated as typical (TMY)",
               "[openstudio.standards.Fan] For Fan Constant Volume 1, there is no greater nominal HP.  Use the efficiency of the largest motor category.",
               "[openstudio.standards.Fan] For Fan Constant Volume 2, there is no greater nominal HP.  Use the efficiency of the largest motor category.",
               "[openstudio.standards.Fan] For Fan Constant Volume 3, there is no greater nominal HP.  Use the efficiency of the largest motor category.",
               "[openstudio.standards.Fan] For Fan Constant Volume 4, there is no greater nominal HP.  Use the efficiency of the largest motor category.",
               "[openstudio.standards.Fan] For Fan Constant Volume 5, there is no greater nominal HP.  Use the efficiency of the largest motor category."
            ]
         }
      },
      {
         "arguments" : {
            "__SKIP__" : false
         },
         "measure_dir_name" : "view_model",
         "name" : "view_model",
         "result" : {
            "completed_at" : "20170710T190408Z",
            "measure_class_name" : "ViewModel",
            "measure_display_name" : "ViewModel",
            "measure_name" : "view_model",
            "measure_taxonomy" : "Reporting.QAQC",
            "measure_type" : "ModelMeasure",
            "measure_uid" : "f4669f10-fda5-489d-8e1c-7ca3c2d40378",
            "measure_version_id" : "f4975c5f-7c25-42a2-927b-02d99b4427ef",
            "measure_version_modified" : "20170526T150340Z",
            "measure_xml_checksum" : "1E1F8B97",
            "started_at" : "20170710T190408Z",
            "stderr" : "",
            "stdout" : "[OpenStudio.Measure] <0> OSArgumentVector is deprecated, use OpenStudio::Measure::OSArgumentVector instead.\n",
            "step_errors" : [],
            "step_files" : [
               "/mnt/openstudio/analysis_4fef0e0f-5396-4c55-a6e1-2cd6803db3ab/data_point_ece4e971-484b-422b-a15c-3ee7544b2fed/run/001_view_model/report.html",
               "/mnt/openstudio/analysis_4fef0e0f-5396-4c55-a6e1-2cd6803db3ab/data_point_ece4e971-484b-422b-a15c-3ee7544b2fed/run/001_view_model/report.json"
            ],
            "step_final_condition" : "Report written to <a href='file:////mnt/openstudio/analysis_4fef0e0f-5396-4c55-a6e1-2cd6803db3ab/data_point_ece4e971-484b-422b-a15c-3ee7544b2fed/run/001_view_model/report.html'>report.html</a>.",
            "step_info" : [ "No changes made to the model." ],
            "step_result" : "NA",
            "step_values" : [
               {
                  "name" : "view_model_html_zip",
[...]
69/2fybsCnanP5MwHiGezYJIl8C/pp8rNOaeZEwD7AKgxszSnNa/nggZDzs8G3Du+flc9kbL3wxkv7WnPVpFifDMJhOxID9+CP7x+zzW+fs0otm6/dkgG0t1t49WJt0iOMNhy+lDWckxsP4kj1nLvsXa7wYjRrscPmKaOT3RXOHb31sfdoqjLeVlgQha35OmtL6iX1OzMxcdWZXfvbPZMQxf0CySDee4X38/Mn5Iu7Y0dFR1nnlEFPU2WP/bNrUeTkPhfelzM1fDe8xvV7216x1R9KtpTPMPCVdiOqcZUcPiMGxXOIafUx78lO5rpw/6Mk0umyWfRbJIz3Mnmf5SBqNDnVa6cgry1qJ4jD4IvTsZNeWtRRMvL4f3+mZml1culWpibmpsijzgWR5WCkTHsaDjyzzcF4eeNgO46ZoJuGmz/XrdppVta7/WjSnkGV3l/3x5wf2n3d/vmen795/+P3tb+z1u99+P2avTt6f6AG8TEZtcevJKRqLAxYFYczG06vED/osXZIdMS/qJ5MXfzzUQJz3vcRZyMzeNjvXH1xCEU/DMZt4YSRejgIvbnpyyN9KHuXCZ+fpZ1qdWTxFWzA7a0IR8NdHOCLmG53t9OyXTEX7UU6sAR3QAR3QAR3QAR3QAR3QAR3Q2Xg6q+dCSEahGIAN2IAN2IAN2IAN2IAN2IAN2IBNPpuVk4kkG3nuEOiADuiADuiADuiADuiADuiADuiUoaN/iln6DVt2RhmYgimYgimYgimYgimYgimYgimYgimYbgbTwuM1U6bZ4ZlgCqZgCqZgCqZgCqZgCqZgCqZgCqZguhlMjc44TllnJxiDNViDNViDNViDNViDNViDNViDNViDNVg/Ius5rUHo3TQLwW6d2I9H4vTSmwgnFrdx89mrYBpGxTTuVu/81b8S48gPxiMRpQgFELu77MVgwDyWIrEbP75kUXAl2KBdcGd0PXS8yUQeJ9KQthtbBTfMi+PFcdhs3Da2Wa9leNNdQx5aon1TFN/JU1ckvR1v3L8Mwsb9USeGGBfBON65Ef7wMpYY58FooI+RPZu3J8e/7LzYedfvTycJm7tnW3lP5/lu1A/9Sfyz8prnuwP/+uFq5T1qsASL+YOjRl+67nHSWs8fi/CMHzRY2gVHjYEfTUbe3aE/lmff7JyPgv6Xnxpqfglo1gQW302S+2Uv7H72rr3s09w7ZUkP5LkesqP5uTtjcXN6PWw2fljluM068hib5Edh1Cwc3vLxr9mJPIeNb2T7GttZzdlt45A7re1GKiDfOGw5re52oy9HmuSmmbBf4+u2FpBLBdSmAupQAXWpgHpUQHtUQPtLQLw0zsESTnk+vEUFtOzYB+WBXCqgNhVQhwqoSwXUowJaduy98kD7VH607Nnt8uPjsme75YE4FZBLBUQ2ZLtmY/aqepJeagvFwABHndnMcNS9ZIaj7iMzHHVaM8NRZzUzHHVSM8NR5jQzGGVKM4NRZzRDHGVCM8RR5jNDHGU6M8RRZjNDHGUyM8RR5jJDHGUqM8RRZjJDHGUiMxwNlXnMEEeZxgxxlFnMEIdqeM7JYStAK7IUevlLClcYAKkTmCGQuosMgdRdZAikzmGGQOokZgikzmKGQMo0ZoijzGOGOOpEZgqkzGSmQMpUZgqkzGWmQMpkZgqkzGamQMp0ZgqkzGemQMqEZgqkzGim46MypZkCKXOaKZAyqZkCkQ3ZOWltBUl/Z6bmq8hs7yaBjZy3lGQ2cv4aJrOR83cymY2c155kNnLeiJLZyHlZSmZjfw02DtZg45skX5GRdUQ6X0eo83XEOl9HsPN1RDtfR7jzdcQ7X0fA83VEvLuOiHfXktvXEfF577rpjJSM+MKNMZrTrWzrDIGNnCdCZiPngZDZyHkeZDZyBmAyGznjL5mNnOGXzEbO6EtmI2fwJbORN92iM7KOSM+bbtEZWUes50236IysI9rzplt0RtYR73nTLToj64j4vOkWnZG15PZ1RHzedIvOSMmIN1qDqzn1ylbpEtvLeVKV2Mt5aJXYy3l+ldjLGbwrsZczjldiL2dIr8SeehViJebUixUrMZezprEae+qlj9XYU6+QrMaeeiFlNfbU6y2rsadellmNPfXqzWrsqRd5VmNPvRa0GnvqJaPVZHf1ytJq7KkXoFZjT71OtRp7656+5M0/5wY/6ez8mO3NYkdsLG7mG0vS/STN6Hq4ne4MKdxCMt/gFYn4l2A6HkTNbmubcd7dZm35m9vV24Zym9C438M2GBx7sRgG4d2LWz/KNkjdd4DGLrIE4F04EOH7qdyvpH2j5HG3zOON8KJpKDIacsvVrOMr3s2HalSjGtWoRjWqUY1qVKMa1ahGNapRjWpUoxrVqEY1qlGNalSjGtWoRjWqUY1qVG9w9Z0TXIsw9AfijScXBnGnZbneJhXQXV7acypCX0Sz5UGN7fkCqMkoiB2p6lu4xCd6aJ1R8cqgyEmFMybByIv9YJyQakSxmOyci4sgFA29lVuvxVCMB8sNyj5r9lrbrC1XXkkVYC5/zGSeCxWw57DO2VDEJ+NY9k9i4mI67qdMm1vsrwKIOUNxf/fHwrVosvgXrBlf+pETpU9Fz5AsCzc5Sf+deP3L5t+ETdHm9GeiyDPcs0kQ+RLw1+RjndbMi4R5gFUY3JhRmtPyxwMh42GHbxvePS+fy9544YuR9LfmrE+zOBmGwXQiBuzHH9k/Zp/fOmeXXjRbvycDbGux9u7B2qRDHG84fCltOCMxHsaX7Dlz2b9Y48Vo1GCHy1dEI78vmjt862Pr01ZhvK20JAhZ83PSlNZP7HNiZuaqM7vys38mI475A5JFuvEM7+PnT84XcceOjo6yziuHmKLOHvtn06bOy3kovC9lbv5qeI/p9bK/Zq07km4tnWHmKelCVOcsO89ADI7lEtfoY9qTn8p15fxBT6bRZbPss0ge6WH2PMtH0mh0qNNKR15Z1koUh8EXoWcnu7aspWDi9f34Ts/U7OLSrUpNzE2VRZkPJMvDSpnwMB58ZJmH8/LAw3YYN0UzCTd9rl+306yqdf3XojmFLLu77I8/P7D/vPvzPTt99/7D729/Y6/f/fb7MXt18v5ED+BlMmqLW09O0VgcsCgIYzaeXiV+0GfpkuyIeVE/mbz446EG4rzvJc5CZva22bn+4BKKeBqO2cQLI/FyFHhx05ND/lbyKBc+O08/0+rM4inagtlZE4qAvz7CuTPfaHanB8pkgtyPcgwO6IAO6IAO6IAO6IAO6IAO6IDOxtNZPVpCMgrFAGzABmzABmzABmzABmzABmzABmzy2aycaSTZyAOLQAd0QAd0QAd0QAd0QAd0QAd0QKcMHf1zztJv2LJDzMAUTMEUTMEUTMEUTMEUTMEUTMEUTMF0M5gWHrSZMs1O0QRTMAVTMAVTMAVTMAVTMAVTMAVTMAXTzWBqdMhxyjo7wRiswRqswRqswRqswRqswRqswRqswRqswfoRWc9pDULvplkIduvEfjwSp5feRDixuI2bz14F0zAqpnG3euev/pUYR34wHokoRSiA2N1lLwYD5rEUid348SWLgivBBu2CO6ProeNNJvI4kYa03dgquGFeHC+Ow2bjtrHNei3Dm+4a8tAS7Zui+E6euiLp7Xjj/mUQNu6POjHEuAjG8c6N8IeXscQ4D0YDfYzs2bw9Of5l58XOqQiv/b5g//bkdptXwov98fDZVt6Ter4b9UN/Ev+svOb57sC/frhaeY8aLMFi/uCo0ZdufJy03PPHIjxzWw2WdsdRY+BHk5F3d+iP5Tk4O+ejoP/lp4aaXwKaNYHFd5Pkftkju5+9ay/7NPdOWdLDea6H7Gh+Bs9Y3JxeD5uNH1Y5brOOPNIm+VEYQQsHuXz8a3Y6z2HjGwm/xnZWc3bbOOROa7uRisk3Dg86zsFiaW83+nIIShBmin+Nr9taqG4lqO1KUDuVoHYrQe1Vgrq3gLrXdTgN6n4lqAeVoPJWNbC8Gli3Gth2NbCdamC71cD2qoGtJsZ4NUHGq4kyt5ooc6uJMreaJOZWk8VcizS2KkhVYoYQioEBqGbfmoFq9qwZqGa/moFqzg7MQDUnB2agmuOWGajmqGUGqjlmmYHqTgwMUTVHLENUzWmBIarmrMAQVXNSYIiqOScwRNWcEhiiVhJZuhMCQ9RKYkt3OmCIWkls6U4GDFEryVi6U4EV1BXBlBLTAKmvYoCq2a2GqJrdaoiq2a2GqJpTAUNUzbmAIarmkGWIqjlkGaJqDlmGqLrzAVNYzUHLFFZzRmAKqzklMIXVnBOYwmpOCkxhNWcFprDVxJjuvMAUtpoo050ZmMJWE2W6cwNT2GqymO7sYAVWf+t1me8Xsp3aBAZ139qQGdR9n0NmUPdND5lB3e8yyAzqfs1BZnBv3Qb3123wYN0Gl2ZK67G49rGGr32w4Wsfbfjahxu+9vGGr33A4Wsfcfjahxy+9jHHXfuY465/frP2MUf7Gys6ixRjTuGOwTLT1GyDIYFB3adIZlD3IZIZ1H2GZAZ10waZQd2sQWZQN2mQGdTNGWQGdVMGmUHtaSqdxbWPNdrTVDqLax9ttKepdBbXPt5oT1PpLK59xNGeptJZXPuYoz1NpbO4/vnN2scc7WkqnUWKMcdoU0eZKWu2B4TYuO7TrcS47oOuxLjuM6/EuG7KqcS4bvapxLju+tlKjOuusq3EuO5a3EqMay+Mr8a67sreaqzrLrOvxrruavxqrOsu2q/Guu7a/mqs624BqMb6o4502hsKqrH+qGOd9vaEaqw/6linPV2vxvqjzui0p/Fz6590dmHO9kyzIzYWN/NNnunezmZ0PdxOd2kWbuecb7yORPxLMB0Poma3tc04726ztvzN7eptCb1NaNzvLR8Mjr1YDIPw7sWtH2Ubl+97Q2N3dwLwLhyI8P1U7iPWvlHyuFvm8UZ40TQUGQ25FXr2FGz3q6eba5dNnYrQF9GMbmJp9kAmoyB25I7fQpPRQ+0uZho56WKcSTDyYj8YJ6QaUSwmO+fiIghFQ8+TXouhGA+WG5R91uwlXtCWniB3CHP5Y7YdvHCn/BzWORuK+GQcy/5JTFxMx/2UaXOL/aWxH1wyFPd3fyyMDVn8C9aML/0o8Wt5n54hWRZucpL+O/H6l82/CZuizenPNkzPcM8mQeRLwF+Tj3VaMy8S5gFWYXBjRmlOyx8PhAzcHb5tePe8fC5744UvRtLfmrM+zeJkGAbTiRiwH39k/5h9fuucXXrRbDyRAba1WHv3YG3SIY43HL6UNpyRGA/jS/acuexfrPFiNGqww+UropHfF80dvvWx9WmrMN5WWhKErPk5aUrrJ/Y5MTNz1Zld+dk/jxg3f0CySDee4X38/Mn5IpLh7ego67xyiCnq7LF/Nm3qvJyHwvtS5uavhveYXi/7a9a6I+nW0hlmnpImRucs0z0Rg2OZcqOPaU9+KteV8wc9mUaXzbLPInmkh9nzLB9Jo9GhTisdeWVZK1EcBl+Enp3s2rKWgonXT2ZbeqZmF5duVWpibqosynwgWR5WyoSH8eAjyzyclweeZK7KTdFMwk2f69ftNKtqXf+1aE4hy+4u++PPD+w/7/58z07fvf/w+9vf2Ot3v/1+zF6dvD/RA3iZjNri1pNTNBYHLAqSifR4epX4QZ+lU8SIeVE/mbz446EG4rzvJc5CZva22bn+4BKKeBqO2cQLI/FyFHhx05ND/lbyKBc+O08/0+rM4inagtlZE4qAvz6CPtU3u9JT4alsl/mjyGWBDuiADuiADuiADuiADuiADuhsPJ1V1Q/JKBQDsAEbsAEbsAEbsAEbsAEbsAEbsMlns6KTJNlI3SPQAR3QAR3QAR3QAR3QAR3QAR3QKUNHXwMs/YYt0/QCUzAFUzAFUzAFUzAFUzAFUzAFUzAF081gWiimmDLNxBHBFEzBFEzBFEzBFEzBFEzBFEzBFEzBdDOYGimwpqwzRVWwBmuwBmuwBmuwBmuwBmuwBmuwBmuwButHZD2nNQi9m2Yh2K0T+/FInF56E+HE4jZuPnsVTMOomMbd6p0fxNVEhF48DQVrvtySGAUgu7vsxWDAPJZisRs/vmRRcCXYoF1wZ3Q9dLzJRB4o0pDWG1sFN8yL48VxmB0h02sZ3iQPfHH1b4riO3nuiqS34437l0HYuD/sxBDjIhjHOzfCH17GEuM8GA30MbKn8/bk+JedFzsfLkV4FUSxF7NTEU8CPwE+DoKRPx4+28p7Xs93o37oT+Kfldc83x341w9XK+9RgyVYzB8cNfrSnY+T9nv+WIRnLm+wtFOOGgM/moy8u0N/LM/D2TkfBf0vPzXU/BLQrAksvpsk98t+2f3sXXvZp7l3ypIe0nM9ZEfzs3jG4ub0eths/LDKcZt15NE2yY/CSFo40OXj36dEfSPlpzpHtddx2qrTnzLlv6Wzp3JQ3UpQ25WgdipB7VaC2qsEdfHMvd6e+gQwM9Sls/S4011E7ZRGPagEdfmgTzpYXg2sWw1suxrYTjWw3Wpge9XA7lUDW02Q8WqizK0mytxqosytJom51WQx1yKNrQpTlZghhGJgAKrZt2agmj1rBqrZr2agmrMDM1DNyYEZqObcwAxUc9QyA9Ucs8xAdScGhqiaI5Yhqua0wBBVc1ZgiKo5KTBE1ZwTGKJqTgkMUTVnBIaolYSW7nzAMAdUElu6swFD1EoSlu5cwBC1bMpaEU4pMQ2QOisGqJrdaoiq2a2GqJrdaoiqORUwRNWcCxiiak4GDFE1hyxDVM0hyxBVdz5gCqs5aJnCas4ITGE1pwSmsJpzAlNYzUmBKazmrMAUVnNaYApbTZDpTgxMs0I1UaY7NTCFrSaJ6U4OTGHLpjH9Ldhlvl/IdmwTGNR9a0NmUPd9DplB3Tc9ZAZ1v8sgM6j7NQeZwb11G9xft8GDdRtcmimtx+Laxxq+9sGGr3204Wsfbvjaxxu+9gGHr33E4Wsfcvjaxxx37WOOu/75zdrHHO1vrOgsUow5hTsHy0xTs42GBAZ1nyKZQd2HSGZQ9xmSGdRNG2QGdbMGmUHdpEFmUDdnkBnUTRlkBrWnqXQW1z7WaE9T6SyufbTRnqbSWVz7eKM9TaWzuPYRR3uaSmdx7WOO9jSVzuL65zdrH3O0p6l0FinGHKPNHWWmrNleEGLjuk+3EuO6D7oS47rPvBLjuimnEuO62acS47pr1CsxrrvKthLjumtxKzGuvTC+Guu6K3ursa67zL4a67qr8auxrrtovxrrumv7q7GuuwWgGuu6OwWqsf6oQ532voNq5jSPOtZp72KoxvqjTui0p+7VWDed0n3S2YU52zvNjthY3Mw3eaZ7O5vR9XA73aVZuJ1zvgE7EvEvwXQ8iJrd1jbjvLvN2vI3t6u3JfQ2oXG/x3wwOPZiMQzCuxe3fpRtX77vDY1d3gnAu3AgwvdTuZtY+0bJ426ZxxvhRdNQZDTkhujZU7Ddt55url02dSpCX0Qzuoml2QOZjILYkTt+C01GD7W7mGnkpItxJsHIi/1gnJBqRLGY7JyLiyAUDT1Pei2GYjxYblD2WbOXeEFbeoLcIczlj9mm8ML98nNY52wo4pNxLPsnMXExHfdTps0t9pfGrnDJUNzf/bEwNmTxL1gzvvSjxK/lfXqGZFm4yUn678TrXzb/JmyKNqc/2zA9wz2bBJEvAX9NPtZpzbxImAdYhcGNGaU5LX88EDJwd/i24d3z8rnsjRe+GEl/a876NIuTYRhMJ2LAfvyR/WP2+a1zdulFs/FEBtjWYu3dg7VJhzjecPhS2nBGYjyML9lz5rJ/scaL0ajBDpeviEZ+XzR3+NbH1qetwnhbaUkQsubnpCmtn9jnxMzMVWd25Wf/PGLc/AHJIt14hvfx8yfni0iGt6OjrPPKIaaos8f+2bSp83IeCu9LmZu/Gt5jer3sr1nrjqRbS2eYeUqaGJ2zTP9EDI5lyo0+pj35qVxXzh/0ZBpdNss+i+SRHmbPs3wkjUaHOq105JVlrURxGHwRenaya8taCiZeP5lt6ZmaXVy6VamJuamyKPOBZHlYKRMexoOPLPNwXh54krkqN0UzCTd9rl+306yqdf3XojmFLLu77I8/P7D/vPvzPTt99/7D729/Y6/f/fb7MXt18v5ED+BlMmqLW09O0VgcsChIJtLj6VXiB32WThEj5kX9ZPLij4caiPO+lzgLmdnbZuf6g0so4mk4ZhMvjMTLUeDFTU8O+VvJo1z47Dz9TKszi6doC2ZnTSgC/voIOlXf7EpPBaiyXeaPIpsFOqADOqADOqADOqADOqADOqCz8XRWVT8ko1AMwAZswAZswAZswAZswAZswAZswCafzYpOkmQjdY9AB3RAB3RAB3RAB3RAB3RAB3RApwwdfQ2w9Bu2TNMLTMEUTMEUTMEUTMEUTMEUTMEUTMEUTDeDaaGYYso0E0cEUzAFUzAFUzAFUzAFUzAFUzAFUzAF081gaqTAmrLOFFXBGqzBGqzBGqzBGqzBGqzBGqzBGqzBGqwfkfWc1iD0bpqFYLdO7McjcXrpTYQTi9u4+exVMA2jYhp3q3d+EFcTEXrxNBSs+XJLYhSA7O6yF4MB81iKxW78+JJFwZVgg3bBndH10PEmE3mgSENab2wV3DAvjhfHYXaETK9leJM88MXVvymK7+S5K5LejjfuXwZh4/6wE0OMi2Ac79wIf3gZS4zzYDTQx8ieztuT4192Xux8uBThVRDFXsxORTwJ/AT4lfBifzx8tpX3vJ7vRv3Qn8Q/K695vjvwrx+uVt6jBkuwmD84avSlOx8n7ff8sQjPXLfB0k45agz8aDLy7g79sTwPZ+d8FPS//NRQ80tAsyaw+G6S3C/7Zfezd+1ln+beKUt6SM/1kB3Nz+IZi5vT62Gz8cMqx23WkUfbJD8KI2nhQJePf58S9Y2Un+ocVd5OzwDry+FHnviUqf0tnTeVg+SSIbXJkDpkSF0ypB4Z0h4Z0j4Z0gEZ0tLhm5ZQdF7O6dyc0/k5p3N0TufpnM7VOZ2vczpn53Te7tJ5u0s4ptN5u0vn7a6ht68KL2lmwFAMDIBy+soMKKenzIBy+skMKGdMMAPKGRHMgHLGAzOgnNHADChnLDADykt8hkhkvp2X9gyRyLw7L+kZIpH5d17KM0Qi8/C8hGeIRObjeenOEIlu/Cbz8bxcZ4hk4uMrwheaaU5qYxgg5XSTIVJONxki5XSTIVLOUGCIlDMUGCLlDAWGSDlDgSFSzlBgiJSX70yh6Lw8L+OZQtH5eV7OM4Wi8/S8rGcKRefreXnPFIrO2/MynykU4ZhO5+15yc8UqtDbcRg9DqOfAWnchsPoVwoOo9ehhcPocRh9mYLD6GXBYfQ4jD4tOIw+/0ocRl8MIAsOo9+MMxtBB3RAB3RAB3RAB3RAB3RAB3Q2ns4TO8oRbMAGbMAGbMAGbMAGbMAGbMBmc9g8rTMbQQd0QAd0QAd0QAd0QAd0QAd0nhSdRxRne9GP/Ws/vnstrsWINf8NebanKM82e0ibocTW3gAltvbalNhaTqtLIsRmBdSmAupQAXWpgHpUQHtUQPtUQAdUQEv78u2QyHybkzk3J/NuTubenMy/OZmDczIP52Quzsl83CXzcZdu/CbzcZfMx10zH9dXXFvGKi+4ZoOj7qXycms2OOpRoLzYmg2OegQoL7Vmg6OOfguhNSsgKo/OSW8WKmtWQFROnZPbLCTWrICo/DonsVnoq1mNjFSenZPVLMTVrICoPDsnpZVXVlvGsRBWswJSd5GFrJoVkDr4LUTVrIDUwW8hqWYFpA5+G0E1OyQy387JbDZqanZIZO6dk9xspNTskMg8PCe/2eio2Y2VZD6ek+JsRNTskMh8PCfLQUENCmpQUFthCAU1WaCgBgU1KKjlFCioQUHNqFVQUFuyb3A9FNQWCxTU7ksFC7aemNAA6IAO6IAO6IAO6IAO6IAO6IDOxtN5YvoDYAM2YAM2YAM2YAM2YAM2YAM2m8Pmu9E9AB3QAR3QAR3QAR3QAR3QAR3QKW/vERTUIJj2pATTTvuXYjBNelluh4pEzHhrM2TTOhsgm9ZZm2xaL90UWlbihgqoTQXUoQLqUgH1qID2qID2qYAOqICWdt/bIZH5Nidzbk7m3ZzMvTmZf3MyB+dkHs7JXJyT+bhL5uMu3fhN5uMumY+7Zj6uL5u2jFVeNs0GR91L5WXTbHDUo0B52TQbHPUIUF42zQZHHf0WsmlWQFQenZPeLGTTrIConDont1nIplkBUfl1TmKzkE2zGhmpPDsnq1nIplkBUXl2TkorL5u2jGMhm2YFpO4iC9k0KyB18FvIplkBqYPfQjbNCkgd/DayaXZIZL6dk9lsZNPskMjcOye52cim2SGReXhOfrORTbMbK8l8PCfF2cim2SGR+XhOloNsGmTTIJu2whCyabJANg2yaZBNyymQTYNsmlGrIJu2ZN/gesimLRbIpt2XClZpPTF1AdABHdABHdABHdABHdABHdABnY2n88REB8AGbMAGbMAGbMAGbMAGbMAGbDaHzXcjdgA6oAM6oAM6oAM6oAM6oAM6oFPeHmTTZgWyafeyaXwzZNO6GyCb1l2bbFrLcUlU02xw2kQ4HSKcLhFOjwhnjwhnnwjngAhnadO9FRCVR3Mql+ZUPs2pnJpTeTWncmtO5decyrE5lWe7VJ7tko3VVJ7tUnm2a+TZ+vJoS1Dl1dEsYJQ9VF4bzQJGGfflldEsYJQxX14XzQJGGe8Wqmg2OER+rE5jFpJoNjhErqzOYRZ6aDY4RN6sTmAWYmg24yCRP6uzl4USmg0OkT+rU1d5GbQlGAsVNBscZfdYaKDZ4CjD3UIBzQZHGe4W+mc2OMpwt1E/swKi8mh1BrORPrMConJqdRKz0T2zAqLya3UesxE9sxoZqTxbncpsFM+sgKg8W53NIHcGuTPIna0whNyZLJA7g9wZ5M5yCuTOIHdm1CrInS3ZN7gecmeLBXJn96WC1VVPTBUAdEAHdEAHdEAHdEAHdEAHdEBn4+k8MbEAsAEbsAEbsAEbsAEbsAEbsAGbzWHz3YgUgA7ogA7ogA7ogA7ogA7ogA7olLcHubNZgdzZvdyZuxlyZ70NkDvrrVHurNUl0juzAGpTAXWogLpUQD0qoD0qoH0qoAMqoG+229sgkfk2J3NuTubdnMy9OZl/czIH52QezslcnJP5uEvm4y7d+E3m4y6Zj7tmPm4ig7aIZaODVh5H3Us2SmjlcdSjgI0WWnkc9Qhgo4ZWHkcd/VZ6aBZAVB6dk96sJNEsgKicOie3WamiWQBR+XVOYrMSRrMYGak8OyerWWmjWQBReXZOSrORR1vEsdJHswBSd5GVQpoFkDr4rTTSLIDUwW+lkmYBpA5+O500GyQy387JbHZSaTZIZO6dk9zs1NJskMg8PCe/2Qmm2YyVZD6ek+LsNNNskMh8PCfLQTYNsmmQTVthCNk0WSCbBtk0yKblFMimQTbNqFWQTVuyb3A9ZNMWC2TT7ksFq7SemLoA6IAO6IAO6IAO6IAO6IAO6IDOxtN5YqIDYAM2YAM2YAM2YAM2YAM2YAM2m8PmuxE7AB3QAR3QAR3QAR3QAR3QAR3QKW8PsmmzAtm0e9m09mbIpu1tgGza3tpk03rpptCyEjdUQG0qoA4VUJcKqEcFtEcFtE8FdEAFtLT73g6JzLc5mXNzMu/mZO7Nyfybkzk4J/NwTubinMzHXTIfd+nGbzIfd8l83DXzcX3ZtGWs8rJpNjjqXiovm2aDox4Fysum2eCoR4Dysmk2OOrot5BNswKi8uic9GYhm2YFROXUObnNQjbNCojKr3MSm4VsmtXISOXZOVnNQjbNCojKs3NSWnnZtGUcC9k0KyB1F1nIplkBqYPfQjbNCkgd/BayaVZA6uC3kU2zQyLz7ZzMZiObZodE5t45yc1GNs0OiczDc/KbjWya3VhJ5uM5Kc5GNs0OiczHc7IcZNMgmwbZtBWGkE2TBbJpkE2DbFpOgWwaZNOMWgXZtCX7BtdDNm2xQDbtvlSwSuuJqQuADuiADuiADuiADuiADuiADuhsPJ0nJjoANmADNmADNmADNmADNmADNmCzOWy+G7ED0AEd0AEd0AEd0AEd0AEd0AGd8vYgmzYrkE27l03rbIZs2v4GyKbtr002reW4JKppNjhtIpwOEU6XCKdHhLNHhLNPhHNAhLO06d4KiMqjOZVLcyqf5lROzam8mlO5Nafya07l2JzKs10qz3bJxmoqz3apPNs18mx9ebQlqPLqaBYwyh4qr41mAaOM+/LKaBYwypgvr4tmAaOMdwtVNBscIj9WpzELSTQbHCJXVucwCz00Gxwib1YnMAsxNJtxkMif1dnLQgnNBofIn9Wpq7wM2hKMhQqaDY6yeyw00GxwlOFuoYBmg6MMdwv9MxscZbjbqJ9ZAVF5tDqD2UifWQFRObU6idnonlkBUfm1Oo/ZiJ5ZjYxUnq1OZTaKZ1ZAVJ6tzmaQO4PcGeTOVhhC7kwWyJ1B7gxyZzkFcmeQOzNqFeTOluwbXA+5s8UCubP7UsHqqiemCgA6oAM6oAM6oAM6oAM6oAM6oLPxdJ6YWADYgA3YgA3YgA3YgA3YgA3YgM3msPluRApAB3RAB3RAB3RAB3RAB3RAB3TK24Pc2axA7uxe7qy7GXJnBxsgd3awRrmzVpdI78wCqE0F1KEC6lIB9aiA9qiA9qmADqiAvtlub4NE5tuczLk5mXdzMvfmZP7NyRyck3k4J3NxTubjLpmPu3TjN5mPu2Q+7pr5uIkM2iKWjQ5aeRx1L9kooZXHUY8CNlpo5XHUI4CNGlp5HHX0W+mhWQBReXROerOSRLMAonLqnNxmpYpmAUTl1zmJzUoYzWJkpPLsnKxmpY1mAUTl2TkpzUYebRHHSh/NAkjdRVYKaRZA6uC30kizAFIHv5VKmgWQOvjtdNJskMh8Oyez2Uml2SCRuXdOcrNTS7NBIvPwnPxmJ5hmM1aS+XhOirPTTLNBIvPxnCwH2TTIpkE2bYUhZNNkgWwaZNMgm5ZTIJsG2TSjVkE2bcm+wfWQTVsskE27LxWs0npi6gKgAzqgAzqgAzqgAzqgAzqgAzobT+eJiQ6ADdiADdiADdiADdiADdiADdhsDpvvRuwAdEAHdEAHdEAHdEAHdEAHdECnvD3Ips0KZNPuZdN6GyGb1m49fdm0hOO6ZNN66abQshI3VEBtKqAOFVCXCqhHBbRHBbRPBXRABbS0+94Oicy3OZlzczLv5mTuzcn8m5M5OCfzcE7m4pzMx10yH3fpxm8yH3fJfNw183F92bRlrPKyaTY46l4qL5tmg6MeBcrLptngqEeA8rJpNjjq6LeQTbMCovLonPRmIZtmBUTl1Dm5zUI2zQqIyq9zEpuFbJrVyEjl2TlZzUI2zQqIyrNzUlp52bRlHAvZNCsgdRdZyKZZAamD30I2zQpIHfwWsmlWQOrgt5FNs0Mi8+2czGYjm2aHRObeOcnNRjbNDonMw3Pym41smt1YSebjOSnORjbNDonMx3OyHGTTIJsG2bQVhpBNkwWyaZBNg2xaToFsGmTTjFoF2bQl+wbXQzZtsUA27b5UsErriakLgA7ogA7ogA7ogA7ogA7ogA7obDydJyY6ADZgAzZgAzZgAzZgAzZgAzZgszlsvhuxA9ABHdABHdABHdABHdABHdABnfL2IJs2K5BNu5dN29sM2TS+AbJpfG2yaS3HJVFNs8FpE+F0iHC6RDg9Ipw9Ipx9IpwDIpylTfdWQFQezalcmlP5NKdyak7l1ZzKrTmVX3Mqx+ZUnu1SebZLNlZTebZL5dmukWfry6MtQZVXR7OAUfZQeW00Cxhl3JdXRrOAUcZ8eV00CxhlvFuootngEPmxOo1ZSKLZ4BC5sjqHWeih2eAQebM6gVmIodmMg0T+rM5eFkpoNjhE/qxOXeVl0JZgLFTQbHCU3WOhgWaDowx3CwU0GxxluFvon9ngKMPdRv3MCojKo9UZzEb6zAqIyqnVScxG98wKiMqv1XnMRvTMamSk8mx1KrNRPLMCovJsdTaD3BnkziB3tsIQcmeyQO4McmeQO8spkDuD3JlRqyB3tmTf4HrInS0WyJ3dlwpWVz0xVQDQAR3QAR3QAR3QAR3QAR3QAZ2Np/PExALABmzABmzABmzABmzABmzABmw2h813I1IAOqADOqADOqADOqADOqADOqBT3h7kzmYFcmdzubP2ZqiduRugduauUe2s1SWSO7MAalMBdaiAulRAPSqgPSqgfSqgAyqgb3bb2yCR+TYnc25O5t2czL05mX9zMgfnZB7OyVyck/m4S+bjLt34TebjLpmPu2Y+bqKCtohlI4NWHkfdSzZCaOVx1KOAjRRaeRz1CGAjhlYeRx39VnJoFkBUHp2T3qwU0SyAqJw6J7dZiaJZAFH5dU5is9JFsxgZqTw7J6tZSaNZAFF5dk5Ks1FHW8SxkkezAFJ3kZVAmgWQOvitJNIsgNTBbyWSZgGkDn47mTQbJDLfzslsdkppNkhk7p2T3OzE0myQyDw8J7/Z6aXZjJVkPp6T4uwk02yQyHw8J8tBNQ2qaVBNW2EI1TRZoJoG1TSopuUUqKZBNc2oVVBNW7JvcD1U0xYLVNPuSwWLtJ6YuADogA7ogA7ogA7ogA7ogA7ogM7G03limgNgAzZgAzZgAzZgAzZgAzZgAzabw+a70ToAHdABHdABHdABHdABHdABHdApbw+qabMC1bS5alpnM1TT2hugmtZem2paL90TWlbhhgqoTQXUoQLqUgH1qID2qID2qYAOqICWNt/bIZH5Nidzbk7m3ZzMvTmZf3MyB+dkHs7JXJyT+bhL5uMu3fhN5uMumY+7Zj6ur5q2jFVeNc0GR91L5VXTbHDUo0B51TQbHPUIUF41zQZHHf0WqmlWQFQenZPeLFTTrIConDont1moplkBUfl1TmKzUE2zGhmpPDsnq1moplkBUXl2Tkorr5q2jGOhmmYFpO4iC9U0KyB18FuoplkBqYPfQjXNCkgd/DaqaXZIZL6dk9lsVNPskMjcOye52aim2SGReXhOfrNRTbMbK8l8PCfF2aim2SGR+XhOloNqGlTToJq2whCqabJANQ2qaVBNyylQTYNqmlGroJq2ZN/geqimLRaopt2XChZpPTFxAdABHdABHdABHdABHdABHdABnY2n88Q0B8AGbMAGbMAGbMAGbMAGbMAGbDaHzXejdQA6oAM6oAM6oAM6oAM6oAM6oFPeHlTTZgWqaXPVtO5mqKZ1NkA1rbM21bSW45KIptngtIlwOkQ4XSKcHhHOHhHOPhHOARHO0p57KyAqj+ZULs2pfJpTOTWn8mpO5dacyq85lWNzKs92qTzbJRurqTzbpfJs18iz9dXRlqDKi6NZwCh7qLw0mgWMMu7LC6NZwChjvrwsmgWMMt4tRNFscIj8WJ3GLBTRbHCIXFmdwyzk0GxwiLxZncAstNBsxkEif1ZnLwshNBscIn9Wp67yKmhLMBYiaDY4yu6xkECzwVGGu4UAmg2OMtwt5M9scJThbiN+ZgVE5dHqDGajfGYFROXU6iRmI3tmBUTl1+o8ZqN5ZjUyUnm2OpXZCJ5ZAVF5tjqbQe0MamdQO1thCLUzWaB2BrUzqJ3lFKidQe3MqFVQO1uyb3A91M4WC9TO7ksFi6uemCgA6IAO6IAO6IAO6IAO6IAO6IDOxtN5YloBYAM2YAM2YAM2YAM2YAM2YAM2m8Pmu9EoAB3QAR3QAR3QAR3QAR3QAR3QKW8PamezArWzudpZbzPUzroboHbWXaPaWatLJHdmAdSmAupQAXWpgHpUQHtUQPtUQAdUQN/strdBIvNtTubcnMy7OZl7czL/5mQOzsk8nJO5OCfzcZfMx1268ZvMx10yH3fNfNxEBW0Ry0YGrTyOupdshNDK46hHARsptPI46hHARgytPI46+q3k0CyAqDw6J71ZKaJZAFE5dU5usxJFswCi8uucxGali2YxMlJ5dk5Ws5JGswCi8uyclGajjraIYyWPZgGk7iIrgTQLIHXwW0mkWQCpg99KJM0CSB38djJpNkhkvp2T2eyU0myQyNw7J7nZiaXZIJF5eE5+s9NLsxkryXw8J8XZSabZIJH5eE6Wg2oaVNOgmrbCEKppskA1DappUE3LKVBNg2qaUaugmrZk3+B6qKYtFqim3ZcKFmk9MXEB0AEd0AEd0AEd0AEd0AEd0AGdjafzxDQHwAZswAZswAZswAZswAZswAZsNofNd6N1ADqgAzqgAzqgAzqgAzqgAzqgU94eVNNmBappc9W0vc1QTettgGpab22qab10T2hZhRsqoDYVUIcKqEsF1KMC2qMC2qcCOqACWtp8b4dE5tuczLk5mXdzMvfmZP7NyRyck3k4J3NxTubjLpmPu3TjN5mPu2Q+7pr5uL5q2jJWedU0Gxx1L5VXTbPBUY8C5VXTbHDUI0B51TQbHHX0W6imWQFReXROerNQTbMConLqnNxmoZpmBUTl1zmJzUI1zWpkpPLsnKxmoZpmBUTl2Tkprbxq2jKOhWqaFZC6iyxU06yA1MFvoZpmBaQOfgvVNCsgdfDbqKbZIZH5dk5ms1FNs0Mic++c5GajmmaHRObhOfnNRjXNbqwk8/GcFGejmmaHRObjOVkOqmlQTYNq2gpDqKbJAtU0qKZBNS2nQDUNqmlGrYJq2pJ9g+uhmrZYoJp2XypYpPXExAVAB3RAB3RAB3RAB3RAB3RAB3Q2ns4T0xwAG7ABG7ABG7ABG7ABG7ABG7DZHDbfjdYB6IAO6IAO6IAO6IAO6IAO6IBOeXtQTZsVqKbNVdP2N0M1bW8DVNP21qaa1nJcEtE0G5w2EU6HCKdLhNMjwtkjwtknwjkgwlnac28FROXRnMqlOZVPcyqn5lRezancmlP5NadybE7l2S6VZ7tkYzWVZ7tUnu0aeba+OtoSVHlxNAsYZQ+Vl0azgFHGfXlhNAsYZcyXl0WzgFHGu4Uomg0OkR+r05iFIpoNDpErq3OYhRyaDQ6RN6sTmIUWms04SOTP6uxlIYRmg0Pkz+rUVV4FbQnGQgTNBkfZPRYSaDY4ynC3EECzwVGGu4X8mQ2OMtxtxM+sgKg8Wp3BbJTPrIConFqdxGxkz6yAqPxancdsNM+sRkYqz1anMhvBMysgKs9WZzOonUHtDGpnKwyhdiYL1M6gdga1s5wCtTOonRm1CmpnS/YNrofa2WKB2tl9qWBx1RMTBQAd0AEd0AEd0AEd0AEd0AEd0Nl4Ok9MKwBswAZswAZswAZswAZswAZswGZz2Hw3GgWgAzqgAzqgAzqgAzqgAzqgAzrl7UHtbFagdjZXOzvYDLWz/Q1QO9tfm9oZ77Sc1kLhHRLxM0LYdjWwnWpgu9XA9qqB3asGdr8a2INqYJf2+lPiVhRnvKJA4xVFGq8o1HhFscYrCjZeUbTxisKNVxRvbkXx5laV1yqKN7eieHNt4k1fVS4PubzIHB2qbu+Wl6CjQ9UdycoL1NGh6o5i5eXr6FB1RzALcTtC2GqiS3u6YKGERwhbTYBpzxUsZPMIYauJMe2JgoXGHmFWqCbKtGcJFoJ8hLDVRJn2FKG8el8eqoWYHyGsbtdaSP0RwuoOYBZCgISwugOYhUwgIazuAGYjIkiJW1Gcac8UbBQHKXErCjXtyYKNPCElbkXRpj1fsNEypMwTFcWb9pTBRviQEreieNOeNUAlESqJUElcYQiVRFmgkgiVRKgk5hSoJEIl0ahVUElcsm9wPVQSFwtUEu9LBYsyn5iYCOiADuiADuiADuiADuiADuiAzsbTeWIaI2ADNmADNmADNmADNmADNmADNpvD5rvRNgEd0AEd0AEd0AEd0AEd0AEd0Clv7xFUEj+Iq4kIvXgaCtZ8uQXRxKclmijCa78v2L896Xmvg2DC5AOT65w7rZebIaB4sAECigdrE1DsHTgHC2X/gEQ/kQ61XQlqpxLUbiWovUpQ9ypB3a8E9aAS1CV5A0LYaqKLVxNevJr44tUEGK8mwng1IcariTFeTZDxaqLMrSbK3IpyWDVR5lYTZa5FlOkLJeYAl9dJJAPV7NnyKolkoJpjV3mNRDJQzXGrvEIiGajmmGWhj0iHWklM6U4LLMQR6VArCSvdOYGFMiIdaiWRpTshsJBFpMsBlcSW7mzAQhORDrWS2NKdCpQXRMwBtdBDpEPV7FYLNUQ6VM0hy0ILkQ5Vc8iyUEKkQ9Ucsmx0EAlhq4ku3RmBjQgiIWw1AaY7KbBRQCSErSbGdOcFNvKHhFmhmijTnRrYaB8SwlYTZbqzAwgfQvgQwocrDCF8KAuEDyF8COHDnALhQwgfGrUKwodL9g2uh/DhYoHw4X2pYJ3lE9MHAR3QAR3QAR3QAR3QAR3QAR3Q2Xg6T0w2BGzABmzABmzABmzABmzABmzAZnPYfDdyJaADOqADOqADOqADOqADOqADOuXtQfjw4fLdCh9mgoevRPq/F1fnvhjHmfThaf9SDKZJ/++wvQ2RQOy0nr4EYsJxXRKI6cbTshJMRDhtIpwOEU6XCKdHhLNHhLNPhHNAhLOkLWAFROXRnMqlOZVPcyqn5lRezancmlP5NadybE7l2S6VZ7tkYzWVZ7tUnu0aeba+ZN8SVHmRPgsYZQ+VF+KzgFHGfXmxPQsYZcyXF9SzgFHGu4Vong0OkR+r05iFFJ4NDpErq3OYhcCdDQ6RN6sTmIVsnc04SOTP6uxlIUZng0Pkz+rUVV5ibgnGQlTOBkfZPRbCcTY4ynC3EIezwVGGu4UAnA2OMtxtRN6sgKg8Wp3BbKTbrIConFqdxGwE2ayAqPxancdsZNasRkYqz1anMhvxNCsgKs9WZzNIom2EJBqqUY1qVKMa1ahGNapRjWpUoxrVqEY1qp9S9Z0TXIsw9AfijSdfVHGnBUn8hZZAEv++QBLfqEASH5L4BgWS+N8WSOJ/WyCJb1ggiQ9J/AcLJPFBB3RAB3RAB3RAB3RAB3RAB3RAZxMEJcEGbMAGbMAGbMAGbMAGbMAGbDaHzXcjZAk6oAM6oAM6oAM6oAM6oAM6oFPe3iNI4v/qX4lx5AfjkYgiCOI/LUH8IPzCTi4u/L4vxv27exn89Qrgz67+pmbx3/Pfs//fo89+uf/feTC4k/+/jK9GP//X/weag/uD"
               },
               {
                  "name" : "annual_peak_electric_demand",
                  "units" : "kW",
                  "value" : 16.949810000000003
               },
               {
                  "name" : "first_year_capital_cost",
                  "units" : "$",
                  "value" : 0
               },
               {
                  "name" : "annual_utility_cost",
                  "units" : "$",
                  "value" : 8327.6299999999992
               },
               {
                  "name" : "total_lifecycle_cost",
                  "units" : "$",
                  "value" : 141989.10000000001
               }
            ],
            "step_warnings" : []
         }
      }
   ],
   "updated_at" : "20170710T190518Z",
   "weather_file" : "USA_CO_Denver.Intl.AP.725650_TMY3.epw"
}
