{
   "completed_at" : "20170710T192359Z",
   "completed_status" : "Success",
   "created_at" : "2017-07-10 19:21:50 +0000",
   "current_step" : 5,
   "description" : "",
   "eplusout_err" : "Program Version,EnergyPlus, Version 8.7.0-78a111df4a, YMD=2017.07.10 19:22,IDD_Version 8.7.0\n   ************* IDF Context for following error/warning message:\n   ************* Note -- lines truncated at 300 characters, if necessary...\n   *************      5 Building,\n   ************* indicated Name=NECB 2011-Warehouse-NECB HDD Method-CAN_NB_Miramichi.717440_CWEC.epw created: 2017-07-10 19:21:56 +0000\n   ************* Only last 1 lines before error line shown.....\n   *************      6   NECB 2011-Warehouse-NECB HDD Method-CAN_NB_Miramichi.717440_CWEC.epw created: 2017-07-10 19:21:56 +0000, !- Name\n   ** Warning ** IP: IDF line~6 Alpha Argument length exceeds maximum, will be truncated=  NECB 2011-Warehouse-NECB HDD Method-CAN_NB_Miramichi.717440_CWEC.epw created: 2017-07-10 19:21:56 +000\n   **   ~~~   ** Will be processed as Alpha=NECB 2011-WAREHOUSE-NECB HDD METHOD-CAN_NB_MIRAMICHI.717440_CWEC.EPW CREATED: 2017-07-10 19:21:56 +0000\n   ************* Beginning Zone Sizing Calculations\n   ** Warning ** ProcessScheduleInput: Schedule:Day:Interval=\"ECONOMIZER MAX OA FRACTION 100 PCT DEFAULT\", Blank Schedule Type Limits Name input -- will not be validated.\n   ** Warning ** ProcessScheduleInput: Schedule:Day:Interval=\"SCHEDULE DAY 1\", Blank Schedule Type Limits Name input -- will not be validated.\n   ** Warning ** ProcessScheduleInput: Schedule:Day:Interval=\"SCHEDULE DAY 10\", Blank Schedule Type Limits Name input -- will not be validated.\n   ** Warning ** ProcessScheduleInput: Schedule:Day:Interval=\"SCHEDULE DAY 11\", Blank Schedule Type Limits Name input -- will not be validated.\n   ** Warning ** ProcessScheduleInput: Schedule:Day:Interval=\"SCHEDULE DAY 12\", Blank Schedule Type Limits Name input -- will not be validated.\n   ** Warning ** ProcessScheduleInput: Schedule:Day:Interval=\"SCHEDULE DAY 13\", Blank Schedule Type Limits Name input -- will not be validated.\n   ** Warning ** ProcessScheduleInput: Schedule:Day:Interval=\"SCHEDULE DAY 14\", Blank Schedule Type Limits Name input -- will not be validated.\n   ** Warning ** ProcessScheduleInput: Schedule:Day:Interval=\"SCHEDULE DAY 15\", Blank Schedule Type Limits Name input -- will not be validated.\n   ** Warning ** ProcessScheduleInput: Schedule:Day:Interval=\"SCHEDULE DAY 16\", Blank Schedule Type Limits Name input -- will not be validated.\n   ** Warning ** ProcessScheduleInput: Schedule:Day:Interval=\"SCHEDULE DAY 17\", Blank Schedule Type Limits Name input -- will not be validated.\n   ** Warning ** ProcessScheduleInput: Schedule:Day:Interval=\"SCHEDULE DAY 18\", Blank Schedule Type Limits Name input -- will not be validated.\n   ** Warning ** ProcessScheduleInput: Schedule:Day:Interval=\"SCHEDULE DAY 19\", Blank Schedule Type Limits Name input -- will not be validated.\n   ** Warning ** ProcessScheduleInput: Schedule:Day:Interval=\"SCHEDULE DAY 2\", Blank Schedule Type Limits Name input -- will not be validated.\n   ** Warning ** ProcessScheduleInput: Schedule:Day:Interval=\"SCHEDULE DAY 5\", Blank Schedule Type Limits Name input -- will not be validated.\n   ** Warning ** ProcessScheduleInput: Schedule:Day:Interval=\"SCHEDULE DAY 6\", Blank Schedule Type Limits Name input -- will not be validated.\n   ** Warning ** ProcessScheduleInput: Schedule:Day:Interval=\"SCHEDULE DAY 7\", Blank Schedule Type Limits Name input -- will not be validated.\n   ** Warning ** ProcessScheduleInput: Schedule:Day:Interval=\"SCHEDULE DAY 8\", Blank Schedule Type Limits Name input -- will not be validated.\n   ** Warning ** ProcessScheduleInput: Schedule:Day:Interval=\"SCHEDULE DAY 9\", Blank Schedule Type Limits Name input -- will not be validated.\n   ** Warning ** ProcessScheduleInput: Schedule:Year=\"ECONOMIZER MAX OA FRACTION 100 PCT\", Blank Schedule Type Limits Name input -- will not be validated.\n   ** Warning ** ProcessScheduleInput: Schedule:Year=\"SCHEDULE RULESET 10\", Blank Schedule Type Limits Name input -- will not be validated.\n   ** Warning ** ProcessScheduleInput: Schedule:Year=\"SCHEDULE RULESET 11\", Blank Schedule Type Limits Name input -- will not be validated.\n   ** Warning ** ProcessScheduleInput: Schedule:Year=\"SCHEDULE RULESET 3\", Blank Schedule Type Limits Name input -- will not be validated.\n   ** Warning ** ProcessScheduleInput: Schedule:Year=\"SCHEDULE RULESET 4\", Blank Schedule Type Limits Name input -- will not be validated.\n   ** Warning ** ProcessScheduleInput: Schedule:Year=\"SCHEDULE RULESET 5\", Blank Schedule Type Limits Name input -- will not be validated.\n   ** Warning ** ProcessScheduleInput: Schedule:Year=\"SCHEDULE RULESET 6\", Blank Schedule Type Limits Name input -- will not be validated.\n   ** Warning ** ProcessScheduleInput: Schedule:Year=\"SCHEDULE RULESET 7\", Blank Schedule Type Limits Name input -- will not be validated.\n   ** Warning ** ProcessScheduleInput: Schedule:Year=\"SCHEDULE RULESET 8\", Blank Schedule Type Limits Name input -- will not be validated.\n   ** Warning ** ProcessScheduleInput: Schedule:Year=\"SCHEDULE RULESET 9\", Blank Schedule Type Limits Name input -- will not be validated.\n   ** Warning ** ProcessScheduleInput: Schedule:Constant=\"ALWAYS OFF DISCRETE\", Blank Schedule Type Limits Name input -- will not be validated.\n   ** Warning ** ProcessScheduleInput: Schedule:Constant=\"ALWAYS ON CONTINUOUS\", Blank Schedule Type Limits Name input -- will not be validated.\n   ** Warning ** CheckUsedConstructions: There are 22 nominally unused constructions in input.\n   **   ~~~   ** For explicit details on each unused construction, use Output:Diagnostics,DisplayExtraWarnings;\n   ************* Beginning System Sizing Calculations\n   ************* Beginning Plant Sizing Calculations\n   ** Warning ** GetDXCoils: Coil:Cooling:DX:SingleSpeed=\"COIL COOLING DX SINGLE SPEED 1 33KBTU/HR 14.0SEER\", invalid\n   **   ~~~   ** ...Part Load Fraction Correlation Curve Name = DXCOOL-NECB2011-REF-COOLPLFFPLR has out of range value.\n   **   ~~~   ** ...Curve maximum must be <= 1.0, curve max at PLR = 0.99 is 1.015\n   **   ~~~   ** ...Setting curve maximum to 1.0 and simulation continues.\n   ** Warning ** GetDXCoils: Coil:Cooling:DX:SingleSpeed=\"COIL COOLING DX SINGLE SPEED 3 166KBTU/HR 9.7EER\", invalid\n   **   ~~~   ** ...Part Load Fraction Correlation Curve Name = DXCOOL-NECB2011-REF-COOLPLFFPLR 2 has out of range value.\n   **   ~~~   ** ...Curve maximum must be <= 1.0, curve max at PLR = 0.99 is 1.015\n   **   ~~~   ** ...Setting curve maximum to 1.0 and simulation continues.\n   ** Warning ** GetDXCoils: Coil:Cooling:DX:SingleSpeed=\"COIL COOLING DX SINGLE SPEED 2 407KBTU/HR 8.21EER\", invalid\n   **   ~~~   ** ...Part Load Fraction Correlation Curve Name = DXCOOL-NECB2011-REF-COOLPLFFPLR 1 has out of range value.\n   **   ~~~   ** ...Curve maximum must be <= 1.0, curve max at PLR = 0.99 is 1.015\n   **   ~~~   ** ...Setting curve maximum to 1.0 and simulation continues.\n   ** Warning ** The Standard Ratings is calculated for Coil:Cooling:DX:SingleSpeed = COIL COOLING DX SINGLE SPEED 1 33KBTU/HR 14.0SEER but not at the AHRI test condition due to curve out of bound.\n   **   ~~~   **  Review the Standard Ratings calculations in the Engineering Reference for this coil type. Also, use Output:Diagnostics, DisplayExtraWarnings for further guidance.\n   ** Warning ** The Standard Ratings is calculated for Coil:Cooling:DX:SingleSpeed = COIL COOLING DX SINGLE SPEED 3 166KBTU/HR 9.7EER but not at the AHRI test condition due to curve out of bound.\n   **   ~~~   **  Review the Standard Ratings calculations in the Engineering Reference for this coil type. Also, use Output:Diagnostics, DisplayExtraWarnings for further guidance.\n   ** Warning ** The Standard Ratings is calculated for Coil:Cooling:DX:SingleSpeed = COIL COOLING DX SINGLE SPEED 2 407KBTU/HR 8.21EER but not at the AHRI test condition due to curve out of bound.\n   **   ~~~   **  Review the Standard Ratings calculations in the Engineering Reference for this coil type. Also, use Output:Diagnostics, DisplayExtraWarnings for further guidance.\n   ** Warning ** Check input. Pump nominal power or motor efficiency is set to 0, for pump=SERVICE WATER LOOP PUMP\n   ** Warning ** Output:Meter: invalid Name=\"DISTRICTCOOLING:FACILITY\" - not found.\n   ** Warning ** Output:Meter: invalid Name=\"DISTRICTHEATING:FACILITY\" - not found.\n   ** Warning ** Output:Meter:MeterFileOnly requested for \"Electricity:Facility\" (TimeStep), already on \"Output:Meter\". Will report to both eplusout.eso and eplusout.mtr\n   ************* Testing Individual Branch Integrity\n   ************* All Branches passed integrity testing\n   ************* Testing Individual Supply Air Path Integrity\n   ************* All Supply Air Paths passed integrity testing\n   ************* Testing Individual Return Air Path Integrity\n   ************* All Return Air Paths passed integrity testing\n   ************* No node connection errors were found.\n   ************* Beginning Simulation\n   ** Warning ** CalcDoe2DXCoil: Coil:Cooling:DX:SingleSpeed \"COIL COOLING DX SINGLE SPEED 1 33KBTU/HR 14.0SEER\" - Air-cooled condenser inlet dry-bulb temperature below 0 C. Outdoor dry-bulb temperature = -16.58\n   **   ~~~   **  ... Occurrence info = RUN PERIOD 1, 01/03 06:03 - 06:05\n   **   ~~~   ** ... Operation at low ambient temperatures may require special performance curves.\n   ** Warning ** CalcDoe2DXCoil: Coil:Cooling:DX:SingleSpeed \"COIL COOLING DX SINGLE SPEED 1 33KBTU/HR 14.0SEER\" - Full load outlet air dry-bulb temperature < 2C. This indicates the possibility of coil frost/freeze. Outlet temperature = 1.89 C.\n   **   ~~~   **  ...Occurrence info = RUN PERIOD 1, 02/01 13:00 - 13:15\n   **   ~~~   ** ... Possible reasons for low outlet air dry-bulb temperatures are: This DX coil\n   **   ~~~   **    1) may have a low inlet air dry-bulb temperature. Inlet air temperature = 16.395 C.\n   **   ~~~   **    2) may have a low air flow rate per watt of cooling capacity. Check inputs.\n   **   ~~~   **    3) is used as part of a HX assisted cooling coil which uses a high sensible effectiveness. Check inputs.\n   ** Warning ** CalcDoe2DXCoil: Coil:Cooling:DX:SingleSpeed \"COIL COOLING DX SINGLE SPEED 3 166KBTU/HR 9.7EER\" - Full load outlet air dry-bulb temperature < 2C. This indicates the possibility of coil frost/freeze. Outlet temperature = 1.95 C.\n   **   ~~~   **  ...Occurrence info = RUN PERIOD 1, 05/16 13:00 - 13:15\n   **   ~~~   ** ... Possible reasons for low outlet air dry-bulb temperatures are: This DX coil\n   **   ~~~   **    1) may have a low inlet air dry-bulb temperature. Inlet air temperature = 16.375 C.\n   **   ~~~   **    2) may have a low air flow rate per watt of cooling capacity. Check inputs.\n   **   ~~~   **    3) is used as part of a HX assisted cooling coil which uses a high sensible effectiveness. Check inputs.\n   ************* Simulation Error Summary *************\n   ************* There are 9 unused schedules in input.\n   ************* There are 9 unused week schedules in input.\n   ************* There are 18 unused day schedules in input.\n   ************* Use Output:Diagnostics,DisplayUnusedSchedules; to see them.\n   *************\n   ************* ===== Recurring Error Summary =====\n   ************* The following recurring error messages occurred.\n   *************\n   *************  ** Warning ** CalcDoe2DXCoil: Coil:Cooling:DX:SingleSpeed=\"COIL COOLING DX SINGLE SPEED 1 33KBTU/HR 14.0SEER\" - Low condenser dry-bulb temperature error continues...\n   *************  **   ~~~   **   This error occurred 363 total times;\n   *************  **   ~~~   **   during Warmup 0 times;\n   *************  **   ~~~   **   during Sizing 0 times.\n   *************  **   ~~~   **   Max=-0.15 [C]  Min=-23.225 [C]\n   *************\n   *************  ** Warning ** CalcDoe2DXCoil: Coil:Cooling:DX:SingleSpeed=\"COIL COOLING DX SINGLE SPEED 1 33KBTU/HR 14.0SEER\" - Full load outlet temperature indicates a possibility of frost/freeze error continues. Outlet air temperature statistics follow:\n   *************  **   ~~~   **   This error occurred 1 total times;\n   *************  **   ~~~   **   during Warmup 0 times;\n   *************  **   ~~~   **   during Sizing 0 times.\n   *************  **   ~~~   **   Max=1.89145  Min=1.89145\n   *************\n   *************  ** Warning ** CalcDoe2DXCoil: Coil:Cooling:DX:SingleSpeed=\"COIL COOLING DX SINGLE SPEED 3 166KBTU/HR 9.7EER\" - Full load outlet temperature indicates a possibility of frost/freeze error continues. Outlet air temperature statistics follow:\n   *************  **   ~~~   **   This error occurred 1 total times;\n   *************  **   ~~~   **   during Warmup 0 times;\n   *************  **   ~~~   **   during Sizing 0 times.\n   *************  **   ~~~   **   Max=1.953748  Min=1.953748\n   *************\n   *************\n   ************* ===== Final Error Summary =====\n   ************* The following error categories occurred.  Consider correcting or noting.\n   ************* Nominally Unused Constructions\n   ************* ..The nominally unused constructions warning is provided to alert you to potential conditions that can cause\n   ************* ..extra time during simulation. Each construction is calculated by the algorithm indicated in the HeatBalanceAlgorithm\n   ************* ..object. You may remove the constructions indicated (when you use the DisplayExtraWarnings option).\n   *************\n   ************* EnergyPlus Warmup Error Summary. During Warmup: 0 Warning; 0 Severe Errors.\n   ************* EnergyPlus Sizing Error Summary. During Sizing: 31 Warning; 0 Severe Errors.\n   ************* EnergyPlus Completed Successfully-- 407 Warning; 0 Severe Errors; Elapsed Time=00hr 00min 42.20sec\n",
   "file_format_version" : "0.0.1",
   "file_paths" : [ "../weather", "../seeds", "../seed" ],
   "hash" : "0E5AEC85",
   "measure_paths" : [ "../measures" ],
   "name" : "LHS Autogenerated 911",
   "osa_id" : "4fef0e0f-5396-4c55-a6e1-2cd6803db3ab",
   "osd_id" : "edd31fbd-0213-405b-9f68-2d3dde20de5f",
   "run_directory" : "./run",
   "seed_file" : "seed.osm",
   "started_at" : "20170710T192153Z",
   "steps" : [
      {
         "arguments" : {
            "__SKIP__" : false,
            "building_type" : "Warehouse",
            "climate_zone" : "NECB HDD Method",
            "epw_file" : "CAN_NB_Miramichi.717440_CWEC.epw",
            "template" : "NECB 2011"
         },
         "measure_dir_name" : "create_prototype_building",
         "name" : "create_prototype_building",
         "result" : {
            "completed_at" : "20170710T192246Z",
            "measure_class_name" : "CreatePrototypeBuilding",
            "measure_display_name" : "Create Prototype Building",
            "measure_name" : "create_prototype_building",
            "measure_taxonomy" : "Whole Building.Space Types",
            "measure_type" : "ModelMeasure",
            "measure_uid" : "ae90fsd7-a651-467a-bc8d-29d310b0f937",
            "measure_version_id" : "c6ec5c18-5595-459f-a082-09a19c8c869c",
            "measure_version_modified" : "20170519T182315Z",
            "measure_xml_checksum" : "057E8D9D",
            "started_at" : "20170710T192155Z",
            "stderr" : "",
            "stdout" : "[OpenStudio.Measure] <0> OSArgumentVector is deprecated, use OpenStudio::Measure::OSArgumentVector instead.\n[openstudio.EpwFile] <0> Successive data points (1978-Jan-31 to 1965-Feb-01, ending on line 753) are greater than 1 day apart in EPW file '/usr/local/bundle/bundler/gems/openstudio-standards-f448df66933d/openstudio-standards/data/weather/CAN_NB_Miramichi.717440_CWEC.epw'. Data will be treated as typical (TMY)\n[openstudio.setFileExtension] <0> Path p, '/usr/local/bundle/bundler/gems/openstudio-standards-f448df66933d/openstudio-standards/data/weather/CAN_NB_Miramichi.717440_CWEC.ddy', has an unexpected file extension. Was expecting 'idf'.\n[openstudio.model.YearDescription] <1> 'UseWeatherFile' is not yet a supported option for YearDescription\n[openstudio.model.YearDescription] <1> 'UseWeatherFile' is not yet a supported option for YearDescription\n[openstudio.setFileExtension] <0> Path p, '/usr/local/bundle/bundler/gems/openstudio-standards-f448df66933d/openstudio-standards/data/weather/CAN_NB_Miramichi.717440_CWEC.ddy', has an unexpected file extension. Was expecting 'idf'.\n[openstudio.model.YearDescription] <1> 'UseWeatherFile' is not yet a supported option for YearDescription\n[openstudio.model.YearDescription] <1> 'UseWeatherFile' is not yet a supported option for YearDescription\n[openstudio.EpwFile] <0> Successive data points (1978-Jan-31 to 1965-Feb-01, ending on line 753) are greater than 1 day apart in EPW file '/usr/local/bundle/bundler/gems/openstudio-standards-f448df66933d/openstudio-standards/data/weather/CAN_NB_Miramichi.717440_CWEC.epw'. Data will be treated as typical (TMY)\n[openstudio.weather.Model] <0> Could not find ground temperatures; will use generic temperatures, which will skew results.\n[openstudio.setFileExtension] <0> Path p, '/usr/local/bundle/bundler/gems/openstudio-standards-f448df66933d/openstudio-standards/data/weather/CAN_NB_Miramichi.717440_CWEC.ddy', has an unexpected file extension. Was expecting 'idf'.\n[openstudio.model.YearDescription] <1> 'UseWeatherFile' is not yet a supported option for YearDescription\n[openstudio.model.YearDescription] <1> 'UseWeatherFile' is not yet a supported option for YearDescription\n[openstudio.EpwFile] <0> Successive data points (1978-Jan-31 to 1965-Feb-01, ending on line 753) are greater than 1 day apart in EPW file '/usr/local/bundle/bundler/gems/openstudio-standards-f448df66933d/openstudio-standards/data/weather/CAN_NB_Miramichi.717440_CWEC.epw'. Data will be treated as typical (TMY)\n[openstudio.setFileExtension] <0> Path p, '/usr/local/bundle/bundler/gems/openstudio-standards-f448df66933d/openstudio-standards/data/weather/CAN_NB_Miramichi.717440_CWEC.ddy', has an unexpected file extension. Was expecting 'idf'.\n[openstudio.model.YearDescription] <1> 'UseWeatherFile' is not yet a supported option for YearDescription\n[openstudio.model.YearDescription] <1> 'UseWeatherFile' is not yet a supported option for YearDescription\n[openstudio.setFileExtension] <0> Path p, '/usr/local/bundle/bundler/gems/openstudio-standards-f448df66933d/openstudio-standards/data/weather/CAN_NB_Miramichi.717440_CWEC.ddy', has an unexpected file extension. Was expecting 'idf'.\n[openstudio.model.YearDescription] <1> 'UseWeatherFile' is not yet a supported option for YearDescription\n[openstudio.model.YearDescription] <1> 'UseWeatherFile' is not yet a supported option for YearDescription\n[openstudio.EpwFile] <0> Successive data points (1978-Jan-31 to 1965-Feb-01, ending on line 753) are greater than 1 day apart in EPW file '/usr/local/bundle/bundler/gems/openstudio-standards-f448df66933d/openstudio-standards/data/weather/CAN_NB_Miramichi.717440_CWEC.epw'. Data will be treated as typical (TMY)\n[openstudio.setFileExtension] <0> Path p, '/usr/local/bundle/bundler/gems/openstudio-standards-f448df66933d/openstudio-standards/data/weather/CAN_NB_Miramichi.717440_CWEC.ddy', has an unexpected file extension. Was expecting 'idf'.\n[openstudio.model.YearDescription] <1> 'UseWeatherFile' is not yet a supported option for YearDescription\n[openstudio.model.YearDescription] <1> 'UseWeatherFile' is not yet a supported option for YearDescription\n[openstudio.setFileExtension] <0> Path p, '/usr/local/bundle/bundler/gems/openstudio-standards-f448df66933d/openstudio-standards/data/weather/CAN_NB_Miramichi.717440_CWEC.ddy', has an unexpected file extension. Was expecting 'idf'.\n[openstudio.model.YearDescription] <1> 'UseWeatherFile' is not yet a supported option for YearDescription\n[openstudio.model.YearDescription] <1> 'UseWeatherFile' is not yet a supported option for YearDescription\n[utilities.idf.WorkspaceObject] <0> Object of type 'Schedule:Constant' and named 'Always Off Discrete', points to an object named OnOff 1 from field 1, but that object cannot be located.\n[utilities.idf.WorkspaceObject] <0> Object of type 'Schedule:Constant' and named 'Always On Continuous', points to an object named Fractional 1 from field 1, but that object cannot be located.\n[utilities.idf.WorkspaceObject] <0> Object of type 'Schedule:Constant' and named 'Always Off Discrete', points to an object named OnOff 1 from field 1, but that object cannot be located.\n[utilities.idf.WorkspaceObject] <0> Object of type 'Schedule:Constant' and named 'Always On Continuous', points to an object named Fractional 1 from field 1, but that object cannot be located.\n[openstudio.standards.Fan] <0> For Fan Constant Volume 1, there is no greater nominal HP.  Use the efficiency of the largest motor category.\n[openstudio.standards.Fan] <0> For Fan Constant Volume 2, there is no greater nominal HP.  Use the efficiency of the largest motor category.\n[openstudio.standards.Fan] <0> For Fan Constant Volume 3, there is no greater nominal HP.  Use the efficiency of the largest motor category.\n[openstudio.EpwFile] <0> Successive data points (1978-Jan-31 to 1965-Feb-01, ending on line 753) are greater than 1 day apart in EPW file '/usr/local/bundle/bundler/gems/openstudio-standards-f448df66933d/openstudio-standards/data/weather/CAN_NB_Miramichi.717440_CWEC.epw'. Data will be treated as typical (TMY)\n[openstudio.setFileExtension] <0> Path p, '/usr/local/bundle/bundler/gems/openstudio-standards-f448df66933d/openstudio-standards/data/weather/CAN_NB_Miramichi.717440_CWEC.ddy', has an unexpected file extension. Was expecting 'idf'.\n[openstudio.model.YearDescription] <1> 'UseWeatherFile' is not yet a supported option for YearDescription\n[openstudio.model.YearDescription] <1> 'UseWeatherFile' is not yet a supported option for YearDescription\n[openstudio.setFileExtension] <0> Path p, '/usr/local/bundle/bundler/gems/openstudio-standards-f448df66933d/openstudio-standards/data/weather/CAN_NB_Miramichi.717440_CWEC.ddy', has an unexpected file extension. Was expecting 'idf'.\n[openstudio.model.YearDescription] <1> 'UseWeatherFile' is not yet a supported option for YearDescription\n[openstudio.model.YearDescription] <1> 'UseWeatherFile' is not yet a supported option for YearDescription\n[openstudio.EpwFile] <0> Successive data points (1978-Jan-31 to 1965-Feb-01, ending on line 753) are greater than 1 day apart in EPW file '/usr/local/bundle/bundler/gems/openstudio-standards-f448df66933d/openstudio-standards/data/weather/CAN_NB_Miramichi.717440_CWEC.epw'. Data will be treated as typical (TMY)\n[openstudio.setFileExtension] <0> Path p, '/usr/local/bundle/bundler/gems/openstudio-standards-f448df66933d/openstudio-standards/data/weather/CAN_NB_Miramichi.717440_CWEC.ddy', has an unexpected file extension. Was expecting 'idf'.\n[openstudio.model.YearDescription] <1> 'UseWeatherFile' is not yet a supported option for YearDescription\n[openstudio.model.YearDescription] <1> 'UseWeatherFile' is not yet a supported option for YearDescription\n[openstudio.setFileExtension] <0> Path p, '/usr/local/bundle/bundler/gems/openstudio-standards-f448df66933d/openstudio-standards/data/weather/CAN_NB_Miramichi.717440_CWEC.ddy', has an unexpected file extension. Was expecting 'idf'.\n[openstudio.model.YearDescription] <1> 'UseWeatherFile' is not yet a supported option for YearDescription\n[openstudio.model.YearDescription] <1> 'UseWeatherFile' is not yet a supported option for YearDescription\n[openstudio.EpwFile] <0> Successive data points (1978-Jan-31 to 1965-Feb-01, ending on line 753) are greater than 1 day apart in EPW file '/usr/local/bundle/bundler/gems/openstudio-standards-f448df66933d/openstudio-standards/data/weather/CAN_NB_Miramichi.717440_CWEC.epw'. Data will be treated as typical (TMY)\n[openstudio.setFileExtension] <0> Path p, '/usr/local/bundle/bundler/gems/openstudio-standards-f448df66933d/openstudio-standards/data/weather/CAN_NB_Miramichi.717440_CWEC.ddy', has an unexpected file extension. Was expecting 'idf'.\n[openstudio.model.YearDescription] <1> 'UseWeatherFile' is not yet a supported option for YearDescription\n[openstudio.model.YearDescription] <1> 'UseWeatherFile' is not yet a supported option for YearDescription\n[openstudio.setFileExtension] <0> Path p, '/usr/local/bundle/bundler/gems/openstudio-standards-f448df66933d/openstudio-standards/data/weather/CAN_NB_Miramichi.717440_CWEC.ddy', has an unexpected file extension. Was expecting 'idf'.\n[openstudio.model.YearDescription] <1> 'UseWeatherFile' is not yet a supported option for YearDescription\n[openstudio.model.YearDescription] <1> 'UseWeatherFile' is not yet a supported option for YearDescription\n[openstudio.standards.Fan] <0> For Fan Constant Volume 1, there is no greater nominal HP.  Use the efficiency of the largest motor category.\n[openstudio.standards.Fan] <0> For Fan Constant Volume 2, there is no greater nominal HP.  Use the efficiency of the largest motor category.\n[openstudio.standards.Fan] <0> For Fan Constant Volume 3, there is no greater nominal HP.  Use the efficiency of the largest motor category.\n",
            "step_errors" : [],
            "step_files" : [],
            "step_info" : [
               "Started adding geometry",
               "Finished adding geometry",
               "Started adding weather file for climate zone: NECB HDD Method.",
               "Template =",
               "Setting Zone3 Bulk Storage to Space Function.Warehouse - med/blk",
               "Setting Zone2 Fine Storage to Space Function.Warehouse - fine",
               "Setting Zone1 Office to Space Function.Office - enclosed",
               "Started applying space types (loads)",
               "Space Function Office - enclosed had no people, one has been created.",
               "Space Function Office - enclosed set occupancy to 4.65 people/1000 ft^2.",
               "Space Function Office - enclosed had no lights, one has been created.",
               "Space Function Office - enclosed set LPD to 1.105536975 W/ft^2.",
               "Space Function Office - enclosed had no electric equipment, one has been created.",
               "Space Function Office - enclosed set electric EPD to 0.696767001 W/ft^2.",
               "Space Function Office - enclosed had no ventilation specification, one has been created.",
               "Space Function Office - enclosed set ventilation per area to 0.085 cfm/ft^2.",
               "Space Function Office - enclosed had no infiltration objects, one has been created.",
               "Space Function Office - enclosed set infiltration to 0.0 per ft^2 exterior surface area.",
               "Space Function Office - enclosed set occupancy schedule to NECB-A-Occupancy.",
               "Space Function Office - enclosed set occupant activity schedule to NECB-Activity.",
               "Space Function Office - enclosed set lighting schedule to NECB-A-Lighting.",
               "Space Function Office - enclosed set electric equipment schedule to NECB-A-Electric-Equipment.",
               "Space Function Office - enclosed set infiltration schedule to Always On.",
               "Space Function Office - enclosed set heating setpoint schedule to NECB-A-Thermostat Setpoint-Heating.",
               "Space Function Office - enclosed set cooling setpoint schedule to NECB-A-Thermostat Setpoint-Cooling.",
               "Space Function Warehouse - fine had no people, one has been created.",
               "Space Function Warehouse - fine set occupancy to 1.86 people/1000 ft^2.",
               "Space Function Warehouse - fine had no lights, one has been created.",
               "Space Function Warehouse - fine set LPD to 0.947603122 W/ft^2.",
               "Space Function Warehouse - fine had no electric equipment, one has been created.",
               "Space Function Warehouse - fine set electric EPD to 0.092902267 W/ft^2.",
               "Space Function Warehouse - fine had no ventilation specification, one has been created.",
               "Space Function Warehouse - fine set ventilation per area to 0.06 cfm/ft^2.",
               "Space Function Warehouse - fine had no infiltration objects, one has been created.",
               "Space Function Warehouse - fine set infiltration to 0.0 per ft^2 exterior surface area.",
               "Space Function Warehouse - fine set occupancy schedule to NECB-A-Occupancy.",
               "Space Function Warehouse - fine set occupant activity schedule to NECB-Activity.",
               "Space Function Warehouse - fine set lighting schedule to NECB-A-Lighting.",
               "Space Function Warehouse - fine set electric equipment schedule to NECB-A-Electric-Equipment.",
               "Space Function Warehouse - fine set infiltration schedule to Always On.",
               "Space Function Warehouse - fine set heating setpoint schedule to NECB-A-Thermostat Setpoint-Heating.",
               "Space Function Warehouse - fine set cooling setpoint schedule to NECB-A-Thermostat Setpoint-Cooling.",
               "Space Function Warehouse - med/blk had no people, one has been created.",
               "Space Function Warehouse - med/blk set occupancy to 0.93 people/1000 ft^2.",
               "Space Function Warehouse - med/blk had no lights, one has been created.",
               "Space Function Warehouse - med/blk set LPD to 0.594574508 W/ft^2.",
               "Space Function Warehouse - med/blk had no electric equipment, one has been created.",
               "Space Function Warehouse - med/blk set electric EPD to 0.092902267 W/ft^2.",
               "Space Function Warehouse - med/blk had no ventilation specification, one has been created.",
               "Space Function Warehouse - med/blk set ventilation per area to 0.06 cfm/ft^2.",
               "Space Function Warehouse - med/blk had no infiltration objects, one has been created.",
               "Space Function Warehouse - med/blk set infiltration to 0.0 per ft^2 exterior surface area.",
               "Space Function Warehouse - med/blk set occupancy schedule to NECB-A-Occupancy.",
               "Space Function Warehouse - med/blk set occupant activity schedule to NECB-Activity.",
               "Space Function Warehouse - med/blk set lighting schedule to NECB-A-Lighting.",
               "Space Function Warehouse - med/blk set electric equipment schedule to NECB-A-Electric-Equipment.",
               "Space Function Warehouse - med/blk set infiltration schedule to Always On.",
               "Space Function Warehouse - med/blk set heating setpoint schedule to NECB-A-Thermostat Setpoint-Heating.",
               "Space Function Warehouse - med/blk set cooling setpoint schedule to NECB-A-Thermostat Setpoint-Cooling.",
               "Finished applying space types (loads)",
               "Started applying constructions",
               "Adding construction set: NECB 2011-NECB HDD Method-Warehouse--is_residentialNo",
               "Adding construction Typical Insulated Exterior Mass Floor R-15.63.",
               "Adding construction Typical Insulated Exterior Mass Wall R-12.5.",
               "Adding construction Typical Insulated Metal Building Roof R-20.41.",
               "Adding construction Typical Interior Floor.",
               "Adding construction Typical Interior Wall.",
               "Adding construction Typical Interior Ceiling.",
               "Adding construction Typical Insulated Carpeted 6in Slab Floor.",
               "Adding construction U 0.55 SHGC 0.31 Dbl Ref-D Tint 6mm/6mm Air.",
               "Adding construction Typical Insulated Metal Door R-1.43.",
               "Adding construction U 0.35 SHGC 0.35 Dbl LoE (e2-.1) Tint 6mm/13mm Air.",
               "Adding construction Typical Overhead Door R-2.0.",
               "Adding construction U 0.48 SHGC 0.40 Dbl Ref-D Clr 6mm/13mm.",
               "Adding construction Typical Interior Window.",
               "Adding construction Typical Interior Door.",
               "Adding construction Typical Interior Partition.",
               "Finished applying constructions",
               "WWR NonRes = 0%; window = 0 ft2, wall = 0 ft2.",
               "WWR Res = 0%; window = 0 ft2, wall = 0 ft2.",
               "WWR Semiheated = 0%; window = 0 ft2, wall = 0 ft2.",
               "The skylight to roof ratios (SRRs) are: NonRes: 2%, Res: 0%.",
               "Started creating thermal zones",
               "Finished creating thermal zones",
               "Running simulation /mnt/openstudio/analysis_4fef0e0f-5396-4c55-a6e1-2cd6803db3ab/data_point_edd31fbd-0213-405b-9f68-2d3dde20de5f/run/000_create_prototype_building/output/Warehouse-NECB 2011-NECB HDD Method-CAN_NB_Miramichi.717440_CWEC.epw/SR0.",
               "Finished run.",
               "Started Adding HVAC",
               "Finished adding HVAC",
               "Started Adding Service Water Heating",
               "Adding service water loop.",
               "Adding water heater.",
               "Template =",
               "Finished adding Service Water Heating",
               "Set sizing factors to 1.3 for heating and 1.3 for cooling.",
               "Running simulation /mnt/openstudio/analysis_4fef0e0f-5396-4c55-a6e1-2cd6803db3ab/data_point_edd31fbd-0213-405b-9f68-2d3dde20de5f/run/000_create_prototype_building/output/Warehouse-NECB 2011-NECB HDD Method-CAN_NB_Miramichi.717440_CWEC.epw/SR1.",
               "Finished run.",
               "Started applying multizone vav OA sizing.",
               "Finished applying multizone vav OA sizing.",
               "Started applying prototype HVAC assumptions.",
               "For Fan Constant Volume 1: allowed_hp = 1.01HP; motor eff = 61.5%; total fan eff = 40% based on 1135 cfm.",
               "For Fan Constant Volume 2: allowed_hp = 9.48HP; motor eff = 61.5%; total fan eff = 40% based on 13854 cfm.",
               "For Fan Constant Volume 3: allowed_hp = 3.99HP; motor eff = 61.5%; total fan eff = 40% based on 5832 cfm.",
               "Sp-Zone3 Bulk Storage Sys-4 Flr-1 Sch-A HPlcmt-east ZN NECB System 4 PSZ requires an economizer because the total cooling capacity of 406996 Btu/hr exceeds the minimum capacity of 68243 Btu/hr.",
               "Sp-Zone1 Office Sys-3 Flr-1 Sch-A HPlcmt-south ZN NECB System 3 PSZ does not require an economizer because the total cooling capacity of 32519 Btu/hr is less than the minimum capacity of 68243 Btu/hr.",
               "Sp-Zone2 Fine Storage Sys-4 Flr-1 Sch-A HPlcmt-south ZN NECB System 4 PSZ requires an economizer because the total cooling capacity of 166051 Btu/hr exceeds the minimum capacity of 68243 Btu/hr.",
               "Finished applying prototype HVAC assumptions.",
               "Started applying HVAC efficiency standards.",
               "For Sp-Zone1 Office Sys-3 Flr-1 Sch-A HPlcmt-south ZN NECB System 3 PSZ, ERV not required based on 0% OA flow, design supply air flow of 1135cfm, and climate zone NECB HDD Method.",
               "For Sp-Zone1 Office Sys-3 Flr-1 Sch-A HPlcmt-south ZN NECB System 3 PSZ, ERV not required based on exhaust heat content.",
               "For NECB 2011 NECB HDD Method:  Sp-Zone1 Office Sys-3 Flr-1 Sch-A HPlcmt-south ZN NECB System 3 PSZ: DCV is not required for any system.",
               "For Sp-Zone1 Office Sys-3 Flr-1 Sch-A HPlcmt-south ZN NECB System 3 PSZ: Annual occupied hours = 2860 hr/yr, assuming a 0.15 occupancy threshold.  This schedule will be used as the HVAC operation schedule.",
               "For Sp-Zone1 Office Sys-3 Flr-1 Sch-A HPlcmt-south ZN NECB System 3 PSZ: Setting motorized OA damper schedule to Sp-Zone1 Office Sys-3 Flr-1 Sch-A HPlcmt-south ZN NECB System 3 PSZ Occ Sch.",
               "For Sp-Zone2 Fine Storage Sys-4 Flr-1 Sch-A HPlcmt-south ZN NECB System 4 PSZ, ERV not required based on 0% OA flow, design supply air flow of 5832cfm, and climate zone NECB HDD Method.",
               "For Sp-Zone2 Fine Storage Sys-4 Flr-1 Sch-A HPlcmt-south ZN NECB System 4 PSZ, ERV not required based on exhaust heat content.",
               "For NECB 2011 NECB HDD Method:  Sp-Zone2 Fine Storage Sys-4 Flr-1 Sch-A HPlcmt-south ZN NECB System 4 PSZ: DCV is not required for any system.",
               "For Sp-Zone2 Fine Storage Sys-4 Flr-1 Sch-A HPlcmt-south ZN NECB System 4 PSZ: Annual occupied hours = 2860 hr/yr, assuming a 0.15 occupancy threshold.  This schedule will be used as the HVAC operation schedule.",
               "For Sp-Zone2 Fine Storage Sys-4 Flr-1 Sch-A HPlcmt-south ZN NECB System 4 PSZ: Because the system has an economizer, it requires a motorized OA damper.",
               "For Sp-Zone2 Fine Storage Sys-4 Flr-1 Sch-A HPlcmt-south ZN NECB System 4 PSZ: Setting motorized OA damper schedule to Sp-Zone2 Fine Storage Sys-4 Flr-1 Sch-A HPlcmt-south ZN NECB System 4 PSZ Occ Sch.",
               "For Sp-Zone3 Bulk Storage Sys-4 Flr-1 Sch-A HPlcmt-east ZN NECB System 4 PSZ, ERV not required based on 0% OA flow, design supply air flow of 13854cfm, and climate zone NECB HDD Method.",
               "For Sp-Zone3 Bulk Storage Sys-4 Flr-1 Sch-A HPlcmt-east ZN NECB System 4 PSZ, ERV not required based on exhaust heat content.",
               "For NECB 2011 NECB HDD Method:  Sp-Zone3 Bulk Storage Sys-4 Flr-1 Sch-A HPlcmt-east ZN NECB System 4 PSZ: DCV is not required for any system.",
               "For Sp-Zone3 Bulk Storage Sys-4 Flr-1 Sch-A HPlcmt-east ZN NECB System 4 PSZ: Annual occupied hours = 2860 hr/yr, assuming a 0.15 occupancy threshold.  This schedule will be used as the HVAC operation schedule.",
               "For Sp-Zone3 Bulk Storage Sys-4 Flr-1 Sch-A HPlcmt-east ZN NECB System 4 PSZ: Because the system has an economizer, it requires a motorized OA damper.",
               "For Sp-Zone3 Bulk Storage Sys-4 Flr-1 Sch-A HPlcmt-east ZN NECB System 4 PSZ: Setting motorized OA damper schedule to Sp-Zone3 Bulk Storage Sys-4 Flr-1 Sch-A HPlcmt-east ZN NECB System 4 PSZ Occ Sch.",
               "For Fan Constant Volume 1: motor nameplate = 0.7069344770849307HP, motor eff = 61.5%.",
               "For Fan Constant Volume 2: motor nameplate = 9HP, motor eff = 61.5%.",
               "For Fan Constant Volume 3: motor nameplate = 4HP, motor eff = 61.5%.",
               "For Service Water Loop Pump: brake hp = 0.0HP, motor nameplate = 0.1HP, motor eff = 70.0%.",
               "For Pump Variable Speed 1: brake hp = 1.11HP, motor nameplate = 1.5HP, motor eff = 86.5%.",
               "For NECB 2011: Coil Cooling DX Single Speed 1: AirCooled All Other Single Package Capacity = 33kBtu/hr; SEER = 14.0",
               "For NECB 2011: Coil Cooling DX Single Speed 2: AirCooled All Other Single Package Capacity = 407kBtu/hr; EER = 8.21",
               "For NECB 2011: Coil Cooling DX Single Speed 3: AirCooled All Other Single Package Capacity = 166kBtu/hr; EER = 9.7",
               "For NECB 2011: Primary Boiler: Gas Hot Water Capacity = 413kBtu/hr; Thermal Efficiency = 0.83",
               "For NECB 2011: Secondary Boiler: Gas Hot Water Capacity = 413kBtu/hr; Thermal Efficiency = 0.83",
               "For NECB 2011: 40.0gal NaturalGas Water Heater - 40kBtu/hr 0.82 Therm Eff; thermal efficiency = 0.82, skin-loss UA = 6Btu/hr",
               "Finished applying HVAC efficiency standards.",
               "Started adding daylighting controls.",
               "Finished adding daylighting controls.",
               "Total Time = 49sec."
            ],
            "step_result" : "Success",
            "step_values" : [
               {
                  "name" : "building_type",
                  "value" : "Warehouse"
               },
               {
                  "name" : "template",
                  "value" : "NECB 2011"
               },
               {
                  "name" : "climate_zone",
                  "value" : "NECB HDD Method"
               },
               {
                  "name" : "epw_file",
                  "value" : "CAN_NB_Miramichi.717440_CWEC.epw"
               }
            ],
            "step_warnings" : [
               "[openstudio.EpwFile] Successive data points (1978-Jan-31 to 1965-Feb-01, ending on line 753) are greater than 1 day apart in EPW file '/usr/local/bundle/bundler/gems/openstudio-standards-f448df66933d/openstudio-standards/data/weather/CAN_NB_Miramichi.717440_CWEC.epw'. Data will be treated as typical (TMY)",
               "[openstudio.EpwFile] Successive data points (1978-Jan-31 to 1965-Feb-01, ending on line 753) are greater than 1 day apart in EPW file '/usr/local/bundle/bundler/gems/openstudio-standards-f448df66933d/openstudio-standards/data/weather/CAN_NB_Miramichi.717440_CWEC.epw'. Data will be treated as typical (TMY)",
               "[openstudio.weather.Model] Could not find ground temperatures; will use generic temperatures, which will skew results.",
               "[openstudio.EpwFile] Successive data points (1978-Jan-31 to 1965-Feb-01, ending on line 753) are greater than 1 day apart in EPW file '/usr/local/bundle/bundler/gems/openstudio-standards-f448df66933d/openstudio-standards/data/weather/CAN_NB_Miramichi.717440_CWEC.epw'. Data will be treated as typical (TMY)",
               "[openstudio.EpwFile] Successive data points (1978-Jan-31 to 1965-Feb-01, ending on line 753) are greater than 1 day apart in EPW file '/usr/local/bundle/bundler/gems/openstudio-standards-f448df66933d/openstudio-standards/data/weather/CAN_NB_Miramichi.717440_CWEC.epw'. Data will be treated as typical (TMY)",
               "[openstudio.standards.Fan] For Fan Constant Volume 1, there is no greater nominal HP.  Use the efficiency of the largest motor category.",
               "[openstudio.standards.Fan] For Fan Constant Volume 2, there is no greater nominal HP.  Use the efficiency of the largest motor category.",
               "[openstudio.standards.Fan] For Fan Constant Volume 3, there is no greater nominal HP.  Use the efficiency of the largest motor category.",
               "[openstudio.EpwFile] Successive data points (1978-Jan-31 to 1965-Feb-01, ending on line 753) are greater than 1 day apart in EPW file '/usr/local/bundle/bundler/gems/openstudio-standards-f448df66933d/openstudio-standards/data/weather/CAN_NB_Miramichi.717440_CWEC.epw'. Data will be treated as typical (TMY)",
               "[openstudio.EpwFile] Successive data points (1978-Jan-31 to 1965-Feb-01, ending on line 753) are greater than 1 day apart in EPW file '/usr/local/bundle/bundler/gems/openstudio-standards-f448df66933d/openstudio-standards/data/weather/CAN_NB_Miramichi.717440_CWEC.epw'. Data will be treated as typical (TMY)",
               "[openstudio.EpwFile] Successive data points (1978-Jan-31 to 1965-Feb-01, ending on line 753) are greater than 1 day apart in EPW file '/usr/local/bundle/bundler/gems/openstudio-standards-f448df66933d/openstudio-standards/data/weather/CAN_NB_Miramichi.717440_CWEC.epw'. Data will be treated as typical (TMY)",
               "[openstudio.standards.Fan] For Fan Constant Volume 1, there is no greater nominal HP.  Use the efficiency of the largest motor category.",
               "[openstudio.standards.Fan] For Fan Constant Volume 2, there is no greater nominal HP.  Use the efficiency of the largest motor category.",
               "[openstudio.standards.Fan] For Fan Constant Volume 3, there is no greater nominal HP.  Use the efficiency of the largest motor category."
            ]
         }
      },
      {
         "arguments" : {
            "__SKIP__" : false
         },
         "measure_dir_name" : "view_model",
         "name" : "view_model",
         "result" : {
            "completed_at" : "20170710T192247Z",
            "measure_class_name" : "ViewModel",
            "measure_display_name" : "ViewModel",
            "measure_name" : "view_model",
            "measure_taxonomy" : "Reporting.QAQC",
            "measure_type" : "ModelMeasure",
            "measure_uid" : "f4669f10-fda5-489d-8e1c-7ca3c2d40378",
            "measure_version_id" : "f4975c5f-7c25-42a2-927b-02d99b4427ef",
            "measure_version_modified" : "20170526T150340Z",
            "measure_xml_checksum" : "1E1F8B97",
            "started_at" : "20170710T192246Z",
            "stderr" : "",
            "stdout" : "[OpenStudio.Measure] <0> OSArgumentVector is deprecated, use OpenStudio::Measure::OSArgumentVector instead.\n",
            "step_errors" : [],
            "step_files" : [
               "/mnt/openstudio/analysis_4fef0e0f-5396-4c55-a6e1-2cd6803db3ab/data_point_edd31fbd-0213-405b-9f68-2d3dde20de5f/run/001_view_model/report.html",
               "/mnt/openstudio/analysis_4fef0e0f-5396-4c55-a6e1-2cd6803db3ab/data_point_edd31fbd-0213-405b-9f68-2d3dde20de5f/run/001_view_model/report.json"
            ],
            "step_final_condition" : "Report written to <a href='file:////mnt/openstudio/analysis_4fef0e0f-5396-4c55-a6e1-2cd6803db3ab/data_point_edd31fbd-0213-405b-9f68-2d3dde20de5f/run/001_view_model/report.html'>report.html</a>.",
            "step_info" : [ "No changes made to the model." ],
            "step_result" : "NA",
            "step_values" : [
               {
                  "name" : "view_model_html_zip",
[...]
lX5Fri1k8nIomupfCGJXcmN+OeO52qA0Vaynpro+SG1dVz0zReHCGz0ze8SR34MtC/KUnn6twVhdd1w9Ekilv3h50YalxGYdq9lf54kiqNiyjw9DUWo/Pb8dGP3Vfd9xMZX0dJ6qbiVKbTyM+Ef5Zu6ofjFxtF4/VyMxnF/jT9F/mdl5uef/PlZvIeWizTEr532Bopdz7Knt/1QxmfD/otkXfKYcvzk2ngzg/8UJ2H070IotHHH1o0Xya6eASRzqfZ/apfNq/cG3fxaeGd6soP6bkZi8PVWTyhvD29Gbdb3z1m7IgtdbRN9k9pJD040OXsr1OiPivlR52j6gzzM8BGavpRJz4tqv2tnTdVoDRgUxqyKW2xKW2zKe2wKe2yKe2xKe2zKa0dvmkpxeflDp+bO3x+7vA5usPn6Q6fqzt8vu7wObvD5+0DPm8fMM7pfN4+4PP2gaG3Py68pJkBY+kZCBX0lZlQQU+ZCRX0k5lQwZxgJlQwI5gJFcwHZkIFs4GZUMFcYCZUlPgMldh8uyjtGSqxeXdR0jNUYvPvopRnqMTm4UUJz1CJzceL0p2hEt/8zebjRbnOUMnExx8VvtBMc6o2hoFSQTcZKhV0k6FSQTcZKhVMBYZKBVOBoVLBVGCoVDAVGCoVTAWGSkX5zlSKz8uLMp6pFJ+fF+U8Uyk+Ty/KeqZSfL5elPdMpfi8vSjzmUoxzul83l6U/EylSr0dh9HjMPqlkMZtOIz+0YXD6HWwcBg9DqOvcuEwenXhMHocRp9fOIy++Js4jL5cQF04jP5pnNkIHOAABzjAAQ5wgAMc4AAHOE8e5xs7yhE0oAENaEADGtCABjSgAQ1ong7Nt3VmI3CAAxzgAAc4wAEOcIADHOB8UzhfsTjbq1Hq3/jp/K28kYFo/wfl2b7F8mzLQXoaldicJ1CJzWmsElu/199mKcRmJTTkEtriEtrmEtrhEtrlEtrjEtrnElp7L99Oic23HTbndti822Fzb4fNvx02B3fYPNxhc3GHzccHbD4+4Ju/2Xx8wObjAzMf16+4tq5VveCajQ7dS9XLrdno0LNA9WJrNjr0DFC91JqNDh39FoXWrIS4PLogvVlUWbMS4nLqgtxmUWLNSojLrwsSm0V9NauZkcuzC7KaRXE1KyEuzy5IadUrq63rWBRWsxKiu8iirJqVEB38FkXVrITo4LcoqWYlRAe/TUE1OyU23y7IbDbV1OyU2Ny7ILnZlFKzU2Lz8IL8ZlNHzW6uZPPxghRnU0TNTonNxwuyHCqooYIaKqg9IkQFNXWhghoqqKGCWsGFCmqooGb0VKigtmbf4PuooPbwQgW1+6uGDVvfWKEB4AAHOMABDnCAAxzgAAc4wHnyON9Y/QHQgAY0oAENaEADGtCABjSgeTo0f5u6B8ABDnCAAxzgAAc4wAEOcIBT3d5XqKCGgmnfVMG009FEerOsl9XrUIlMhdN/GmXTBk+gbNqgsbJpO/lLoVVL3HAJDbmEtriEtrmEdriEdrmE9riE9rmE1t6+t1Ni822HzbkdNu922NzbYfNvh83BHTYPd9hc3GHz8QGbjw/45m82Hx+w+fjAzMf1y6ata1Uvm2ajQ/dS9bJpNjr0LFC9bJqNDj0DVC+bZqNDR79F2TQrIS6PLkhvFmXTrIS4nLogt1mUTbMS4vLrgsRmUTbNambk8uyCrGZRNs1KiMuzC1Ja9bJp6zoWZdOshOgusiibZiVEB79F2TQrITr4LcqmWQnRwW9TNs1Oic23CzKbTdk0OyU29y5IbjZl0+yU2Dy8IL/ZlE2zmyvZfLwgxdmUTbNTYvPxgiyHsmkom4ayaY8IUTZNXSibhrJpKJtWcKFsGsqmGT0Vyqat2Tf4PsqmPbxQNu3+qmGX1jdWXQA4wAEOcIADHOAABzjAAQ5wnjzON1Z0ADSgAQ1oQAMa0IAGNKABDWieDs3fptgBcIADHOAABzjAAQ5wgAMc4FS3h7Jpywtl0+7LpjlPo2za8AmUTRs2Vjat3xuwVE2z0Rky6Wwx6Wwz6eww6ewy6ewx6ewz6ay9dG8lxOXRDpdLO1w+7XA5tcPl1Q6XWztcfu1wObbD5dkDLs8esM3VXJ494PLsgZFn65dHW5OqXh3NQobsoeq10SxkyLivXhnNQoaM+ep10SxkyHi3qIpmo8Pkx3QasyiJZqPD5Mp0DrOoh2ajw+TNdAKzKIZmMw8y+TOdvSwqodnoMPkznbqql0Fbk7GogmajQ3aPRQ00Gx0y3C0qoNnokOFuUf/MRocMd5vqZ1ZCXB5NZzCb0mdWQlxOTScxm7pnVkJcfk3nMZuiZ1YzI5dn06nMpuKZlRCXZ9PZDOXOUO4M5c4eEaLcmbpQ7gzlzlDurOBCuTOUOzN6KpQ7W7Nv8H2UO3t4odzZ/VXD7qpvrCoAcIADHOAABzjAAQ5wgAMc4Dx5nG+sWABoQAMa0IAGNKABDWhAAxrQPB2av02RAuAABzjAAQ5wgAMc4AAHOMCpbg/lzpYXyp2typ0Nn0a1s60nUO1sq8FqZ/1tpnJnFkJDLqEtLqFtLqEdLqFdLqE9LqF9LqHP3ra3UWLzbYfNuR0273bY3Nth82+HzcEdNg932FzcYfPxAZuPD/jmbzYfH7D5+MDMx02qoD3UsimDVl2H7iWbQmjVdehZwKYUWnUdegawKYZWXYeOfqtyaBZCXB5dkN6sKqJZCHE5dUFusyqKZiHE5dcFic2qLprFzMjl2QVZzao0moUQl2cXpDSb6mgPdazKo1kI0V1kVSDNQogOfqsSaRZCdPBbFUmzEKKD365Mmo0Sm28XZDa7Smk2SmzuXZDc7Iql2SixeXhBfrOrl2YzV7L5eEGKsyuZZqPE5uMFWQ5V01A1DVXTHhGiapq6UDUNVdNQNa3gQtU0VE0zeipUTVuzb/B9VE17eKFq2v1Vwyatb6y4AHCAAxzgAAc4wAEOcIADHOA8eZxvrOYAaEADGtCABjSgAQ1oQAMa0Dwdmr9NrQPgAAc4wAEOcIADHOAABzjAqW4PVdOWF6qmraqmbT2NqmnbT6Bq2nZjVdN28ndCq1a44RIacgltcQltcwntcAntcgntcQntcwmtvXxvp8Tm2w6bczts3u2wubfD5t8Om4M7bB7usLm4w+bjAzYfH/DN32w+PmDz8YGZj+tXTVvXql41zUaH7qXqVdNsdOhZoHrVNBsdegaoXjXNRoeOfouqaVZCXB5dkN4sqqZZCXE5dUFus6iaZiXE5dcFic2iaprVzMjl2QVZzaJqmpUQl2cXpLTqVdPWdSyqplkJ0V1kUTXNSogOfouqaVZCdPBbVE2zEqKD36Zqmp0Sm28XZDabqml2SmzuXZDcbKqm2SmxeXhBfrOpmmY3V7L5eEGKs6maZqfE5uMFWQ5V01A1DVXTHhGiapq6UDUNVdNQNa3gQtU0VE0zeipUTVuzb/B9VE17eKFq2v1Vwyatb6y4AHCAAxzgAAc4wAEOcIADHOA8eZxvrOYAaEADGtCABjSgAQ1oQAMa0Dwdmr9NrQPgAAc4wAEOcIADHOAABzjAqW4PVdOWF6qmraqmbT+Nqmk7T6Bq2k5jVdP6vQFL0TQbnSGTzhaTzjaTzg6Tzi6Tzh6Tzj6Tzto791ZCXB7tcLm0w+XTDpdTO1xe7XC5tcPl1w6XYztcnj3g8uwB21zN5dkDLs8eGHm2fnW0NanqxdEsZMgeql4azUKGjPvqhdEsZMiYr14WzUKGjHeLomg2Okx+TKcxi4poNjpMrkznMItyaDY6TN5MJzCLWmg28yCTP9PZy6IQmo0Okz/Tqat6FbQ1GYsiaDY6ZPdYlECz0SHD3aIAmo0OGe4W5c9sdMhwtyl+ZiXE5dF0BrOpfGYlxOXUdBKzKXtmJcTl13Qes6l5ZjUzcnk2ncpsCp5ZCXF5Np3NUO0M1c5Q7ewRIaqdqQvVzlDtDNXOCi5UO0O1M6OnQrWzNfsG30e1s4cXqp3dXzVsrvrGigIABzjAAQ5wgAMc4AAHOMABzpPH+cZqBYAGNKABDWhAAxrQgAY0oAHN06H529QoAA5wgAMc4AAHOMABDnCAA5zq9lDtbHmh2tmq2tnO06h2tvsEqp3tNljtrL/NVO7MQmjIJbTFJbTNJbTDJbTLJbTHJbTPJfTZ2/Y2Smy+7bA5t8Pm3Q6bezts/u2wObjD5uEOm4s7bD4+YPPxAd/8zebjAzYfH5j5uEkVtIdaNmXQquvQvWRTCK26Dj0L2JRCq65DzwA2xdCq69DRb1UOzUKIy6ML0ptVRTQLIS6nLshtVkXRLIS4/LogsVnVRbOYGbk8uyCrWZVGsxDi8uyClGZTHe2hjlV5NAshuousCqRZCNHBb1UizUKIDn6rImkWQnTw25VJs1Fi8+2CzGZXKc1Gic29C5KbXbE0GyU2Dy/Ib3b10mzmSjYfL0hxdiXTbJTYfLwgy6FqGqqmoWraI0JUTVMXqqahahqqphVcqJqGqmlGT4WqaWv2Db6PqmkPL1RNu79q2KT1jRUXAA5wgAMc4AAHOMABDnCAA5wnj/ON1RwADWhAAxrQgAY0oAENaEADmqdD87epdQAc4AAHOMABDnCAAxzgAAc41e2hatryQtW0VdW03adRNW3vCVRN22usatpO/k5o1Qo3XEJDLqEtLqFtLqEdLqFdLqE9LqF9LqG1l+/tlNh822FzbofNux0293bY/Nthc3CHzcMdNhd32Hx8wObjA775m83HB2w+PjDzcf2qaeta1aum2ejQvVS9apqNDj0LVK+aZqNDzwDVq6bZ6NDRb1E1zUqIy6ML0ptF1TQrIS6nLshtFlXTrIS4/LogsVlUTbOaGbk8uyCrWVRNsxLi8uyClFa9atq6jkXVNCshuossqqZZCdHBb1E1zUqIDn6LqmlWQnTw21RNs1Ni8+2CzGZTNc1Oic29C5KbTdU0OyU2Dy/IbzZV0+zmSjYfL0hxNlXT7JTYfLwgy6FqGqqmoWraI0JUTVMXqqahahqqphVcqJqGqmlGT4WqaWv2Db6PqmkPL1RNu79q2KT1jRUXAA5wgAMc4AAHOMABDnCAA5wnj/ON1RwADWhAAxrQgAY0oAENaEADmqdD87epdQAc4AAHOMABDnCAAxzgAAc41e2hatryQtW0VdW0vadRNW3/CVRN22+salq/N2ApmmajM2TS2WLS2WbS2WHS2WXS2WPS2WfSWXvn3kqIy6MdLpd2uHza4XJqh8urHS63drj82uFybIfLswdcnj1gm6u5PHvA5dkDI8/Wr462JlW9OJqFDNlD1UujWciQcV+9MJqFDBnz1cuiWciQ8W5RFM1Gh8mP6TRmURHNRofJlekcZlEOzUaHyZvpBGZRC81mHmTyZzp7WRRCs9Fh8mc6dVWvgrYmY1EEzUaH7B6LEmg2OmS4WxRAs9Ehw92i/JmNDhnuNsXPrIS4PJrOYDaVz6yEuJyaTmI2Zc+shLj8ms5jNjXPrGZGLs+mU5lNwTMrIS7PprMZqp2h2hmqnT0iRLUzdaHaGaqdodpZwYVqZ6h2ZvRUqHa2Zt/g+6h29vBCtbP7q4bNVd9YUQDgAAc4wAEOcIADHOAABzjAefI431itANCABjSgAQ1oQAMa0IAGNKB5OjR/mxoFwAEOcIADHOAABzjAAQ5wgFPdHqqdLS9UO1tVO9t/EtXOhv1vv9pZxthUtTNnq9/rP7icLZbiZ4yyw3pkt+qR3a5Hdqce2d16ZPfqkd2vR3btXX9O3ZrizKkp0JyaIs2pKdScmmLNqSnYnJqizakp3Jya4m1QU7wN6sprNcXboKZ4G9jEm35VuSLl6kXm+FR1e7d6CTo+Vd2ZrHqBOj5V3Vmsevk6PlXdGcyiuB2jbD3Rpb1csKiExyhbT4BprxUsyuYxytYTY9oLBYsae4xZoZ4o014lWBTkY5StJ8q0lwjVq/cVqVoU82OU1e1ai1J/jLK6E5hFIUBGWd0JzKJMIKOs7gRmU0SQU7emONNeKdhUHOTUrSnUtBcLNuUJOXVrijbt9YJNLUPOPFFTvGkvGWwKH3Lq1hRv2qsGVElElURUSXxEiCqJ6kKVRFRJRJXEggtVElEl0eipUCVxzb7B91El8eGFKon3Vw2bMr+xYiLAAQ5wgAMc4AAHOMABDnCA8+RxvrEaI6ABDWhAAxrQgAY0oAENaEDzdGj+NrVNgAMc4AAHOMABDnCAAxzgAKe6va9QJfG9vJ7K2E1nsRTtNxsomvhtFU2U8Y0/kuI/rvK8t1E0FWrA1D7nrf6bp1FA0XkCBRSd5gooqv+vWqmJSWfIpLPFpLPNpLPDpLPLpLPHpLPPpLNeYMBGiMujHS6Xdrh82uFyaofLqx0ut3a4/NrhcmyHy7MHXJ49YJuruTx7wOXZAyPPNijs91DKopJfdRmyhyxq9VWXIePeohpfdRky5i3q7VWXIePdpqKehQ6TH9NpzKZInoUOkyvTOcym7p2FDpM30wnMppSdxTzI5M909rKpTmehw+TPdOqyKDj3UMamwpyFDtk9NjXkLHTIcLepEmehQ4a7TR04Cx0y3K0qvdkIcXk0ncGsirfZCHE5NZ3ErOqx2Qhx+TWdx6xKrNnMjFyeTacyq6ppNkJcnk1ns0dCv8d+FPvpXDiiK9qns3BDlaTa6f4fN+z2nW7+/6/lqKt+gfnlNNdf+0Hv1autrf19BhOD+k0M6zexVb+J7fpN7NRvYrd+E3v1m9iv38RaZq/LRgPx7TQQ4E4DEe40EOJOAzHuNBDkTgNR7jQQ5k4DcT5oIM4HTeTxBuJ80ECcD6rF+SC34aaUjb7esmo4HAz2dhhM0KPBZoIeDDYT9FiwmaCnXDYT9IzLZoKecNlM0PMtmwl6umUzUbCs4rPRQHwXLKv4bDQQ4QXLKj4bDcR4wbKKz0YDUV6wrOKz0UCcFyyr+Gw0kccbiPOCZRWfjWpxPlQ23sQ+YWOwr7escpzd3eGQwQQ9Gmwm6MFgM0GPBZsJesplM0HPuGwm6AmXzQQ937KZoPdGsZko2BDIZ4PeUcVng95sxWeD3ofFZ4PeosVng96XyGeD3rLIZ4Pezchng97oyGejgTgvWFbx2WgijzeQyAuWVXw2qqXyLWXj/WRG2djTW1btZ9f2jwwm6NFgM0EPBpsJeizYTNDLKjYT9LKKzQS9rGIzQS+r2EzQ0y2biYJlFZ8NelnFZ4NeVvHZoJdVfDboZRWfDXpZxWeDXlbx2aCXVXw26GUVn40G4rxgWcVno4k83kAiL1hW8dmolsq3lY3/SI+ysau3rHr9+uhod5fBBD0abCbowWAzQY8Fmwl6WcVmgl5WsZmgl1VsJuhlFZsJerplM1GwrOKzQS+r+GzQyyo+G/Syis8Gvazis0Evq/hs0MsqPhv0sorPBr2s4rPRQJwXLKv4bDSRxxtI5AXLKj4b1VL5Tr50m0nKxo7esuroaGeHxQQ9Gmwm6MFgM0GPBZsJelnFZoJeVrGZoJdVbCboZRWbCXq6ZTNRsKzis0Evq/hs0MsqPhv0sorPBr2s4rNBL6v4bNDLKj4b9LKKzwa9rOKz0UCcFyyr+Gw0kccbSOQFyyo+G9VS+a6y8WtEbYsfbOstq/b2BoPtbQYT9GiwmaAHg80EPRZsJuhlFZsJelnFZoJeVrGZoJdVbCaK6k4xmSgstsZlo6haFZeNokJWXDaKalxx2Sgqf8Vlo6jmG5eNonJwXDaKKsVx2SgqIsdlo4E4L1hW8dloIo83kMgLllV8NspT+QedCq/LmsziUITydlVANq8b205uxp28AmxpqdhVYedEpj9Gs9BL2tv9jnCc7Y4Yqv8bbOuVm73LMO6LUnvekZvKcRTPX935yaIs8v3za1SPzgROYk/G72aqSrH2jYpjvs7xq3STWSwXGKrQ8rLfay7PjWY0oxnNaEYzmtGMZjSjGc1oRjOa0YxmNKMZzWhGM5rRjGY0oxnNaEYzmtGMZjSjGc1oRjOa0YxmNKMZzWhGM5rRjGY0oxnNaEYzmtGM5mfVPO9FNzKOfU/+6qoXa51e3/J9VfVqbLL+auypjH2ZLF+vbXVWLxBPgyjtBX4oS1+RTb70nm75m7VJLz96fhoFbupHYQbVSlI57V7IyyiWLb03n9/KsQy99QdafNbe6XfEUL253FcvMqt/WoG8TBVYifRKtnc+lulxmKr+yUxczsJRTtreEH+WSKwI5f3dZ6XvcqvLvxTtdOInvSQfFT1D6npwUy/rv2N3NGn/BWyqtsJXr45n7Evd82mU+ErwdfaxztOsLiXzBao4ujVDWmH5oSdVPHSdjuHdq+uq6o2XvgyUv7WXfbqIk3EczabSE99/L/6x/Pyudz5xk+X77yrANh62zr/YmnVIzx2P3ygbvUCG43QiXoqB+LdovQqCljhY/0YS+CPZ7jobZ/0PG6Xx9uhJoli0r7JH6f8grjIzS1dd2lWf/TObccwHSF3KjZd6Z1cfeh/lXBweHi46r5pirroc9ivTR11dF7F0P1a5+ZPhPabfV/21fLpD5dbKGZaekhdy6J27SeKPQ+kdqRIRyVnekx+qdeVqoKezZNKuOhbZkB4sxrN6JAXBgc5T9tQ3q1pJ0jj6KPXsLL5b1VI0dUd+Otcztfxy5afKTaxMVVVZTSTr00qV8DCefNS1Cuf1iUd0hWOqZhJu+qyfOnlW1fr+p7I1hbo2N8Xvf7wX/z354504PXn3/pfffhJvT3765Uj8fPzuWE/gTTZryztXLdFEGokkilMRzq4zPxiJvKRJItxklC1e/HCsobjqe6XzIDO7HXGhP7nEMp3FoZi6cSLfBJGbtl015W9kQ/ngs4v8M63OLF+iPTC7fIQy4U/1Vnq5X3/m4Z4He/uFJy/dWZCKaRxlc5h80REvvtvbOzo6Pn5Rc+EZ4AAHOMABDnCAAxzgAAc4wHmeOCKZXWc/AgtPqg+F584VUSw90IAGNKABDWhAAxrQgAY0oAFNMc1tvjXrM5qLYCaBAxzgAAc4wAEOcIADHOAABzhVcO7PDXTUuYGnM+rcwKGT/4Xt1autrf19kIIUpCAFKUhBClKQghSkIAUpSEH6NEgHOambUqT9nHQ4HAz2dkAKUpCCFKQgBSlIQQpSkIIUpCAF6dMgHSrSN7FPkA72c1LH2d0dDkEKUpCCFKQgBSlIQQpSkIIUpCAF6dMg3VKk7yczinQvJ93Pru0fQQpSkIIUpCAFKUhBClKQghSkIAXp0yDdVqT/kR5FupuTvn59dLS7C1KQghSkIAUpSEEKUpCCFKQgBSlInwbpTv6biZmkSHdy0qOjnR2QghSkIAUpSEEKUpCCFKQgBSlIQfpUSHcV6a8RVVlwsJ2T7u0NBtvbIAUpSEEKUpCCFKQgBSlIQQpSkIK0MdIVihe7t+1Ssbte6qeBPJ24U9lL5V3afvFzNIuTcoz54ztf+9cyTPwoDGSSK5RIbG6KV54nXJEriVs/nYgkupbCG5bcmdyMe+50KkOv3VK2WxslN6yunpumcbt11+qInb7hTfPspoH+TUk6D+QCr+uGo0kUZ/e3AnlpQLvUuIzCtHsr/fEkVRoXUeDpayzG5nTa/V8USkecXF76IylO50l3KN4EcdcRp6NJ95X4+fdgdJ12k2iWDcP/fhO/HR/9qL6WymsxFL+f/k+cjEbquy82igb25WYyiv1p+i/yOy83Pf/my83kPbRYpiV877A1Ul5/lHWU64cyPh8OWiLvvcOW5yfTwJ0f+GGQNXUvgmj08YcWzZeJLh5BpPNpdr/qwM0r98ZdfFp4p7pu3Fg5qDgUnn89DWQvlLenN+N267vHjB2x1e/n/5QGnJL13NTNdM/+bAXuhQxaBy1PXrqzIBXTOLr0A9nqLFrO71oHTq/fad24wUwu/3+k5qXsnmyqOTo6Pm596mjpDJh0hkw6W0w620w6O0w6u0w6e0w6+0w6Tp9LiMujHS6Xdrh82uFyaofLqx0ut3a4/NrhcmyHy7MHXJ49YJuruTx7wOXZAyPPFsns+nrtoGqtjBZLz0CG7CMzGbKHzGTI/jGTIePeTIaMejMZMubNZMiIN5Mh491Mhk5khjpMfkynMUMdJk+mk5ihDpMv0ynMUIfJm+kEZqjD5M90+jLU4ZqXmfyZzl2GOvr+fOuHqXnaulAf6euQ3WOoQ3aPoQ7ZPYY6ZLgb6pDhbqhDhruhDhnuhjpkuBvq0PnLVIjLo+kMZirE5dN0DjMV4vJqOouZCnH5NZ3HTIW4PJvOZKZCbHM1l2fTycxUSN+z7/9yUXqyMJXm+ms/6C2OHmYwMajfxLB+E1v1m9iu38RO/SZ26zexV7+J/fpNrGX2umw0EN9OAwHuNBDhTgMh7jQQ404DQe40EOVOA2HuNBDngwbifNBEHm8gzgcNxPmgWpyXHuCot6xanPDIYIIeDTYT9GCwmaDHgs0EPeWymaBnXDYT9ITLZoKeb9lM0NMtm4mCZRWfjQbiu2BZxWejgQgvWFbx2WggxguWVXw2GojygmUVn40G4rxgWcVno4k83kCcFyyr+GxUi/PSc7L0llWLg7QYTNCjwWaCHgw2E/RYsJmgp1w2E/SMy2aCnnDZTNDzLZsJem8Um4mCDYF8NugdVXw26M1WfDbofVh8NugtWnw26H2JfDboLYt8NujdjHw26I2OfDYaiPOCZRWfjSbyeAOJvGBZxWejWiovPY5Eb1m1OK+EwQQ9Gmwm6MFgM0GPBZsJelnFZoJeVrGZoJdVbCboZRWbCXq6ZTNRsKzis0Evq/hs0MsqPhv0sorPBr2s4rNBL6v4bNDLKj4b9LKKzwa9rOKz0UCcFyyr+Gw0kccbSOQFyyo+G9VSeWnVd71l1aIsPIMJejTYTNCDwWaCHgs2E/Syis0EvaxiM0Evq9hM0MsqNhP0dMtmomBZxWeDXlbx2aCXVXw26GUVnw16WcVng15W8dmgl1V8NuhlFZ8NelnFZ6OBOC9YVvHZaCKPN5DIC5ZVfDaqpfLS4rp6y6pF9V0GE/RosJmgB4PNBD0WbCboZRWbCXpZxWaCXlaxmaCXVWwm6OmWzUTBsorPBr2s4rNBL6v4bNDLKj4b9LKKzwa9rOKzQS+r+GzQyyo+G/Syis9GA3FesKzis9FEHm8gkRcsq/hsVEvlpTUM9ZZViyKHDCbo0WAzQQ8Gmwl6LNhM0MsqNhP0sorNBL2sYjNBL6vYTBTVnWIyUVhsjctGUbUqLhtFhay4bBTVuOKyUVT+istGUc03LhtF5eC4bBRViuOyUVREjstGA3FesKzis9FEHm8gkRcsq/hslKfyDzoVXpflm8WhCOXtqoBsXje2ndyMO3kF2NJSsasa0IlMf4xmoZe0t/sd4TjbHTFU/zfY1is3e5dh3Je29rwjN5XjKJ6/uvOTRQ3l++fXKDSdCZzEnozfzVRJY+0bFcd8neNX6SazWC4wVFXmZb/XXOQbzWhGM5rRjGY0oxnNaEYzmtGMZjSjGc1oRjOa0YxmNKMZzWhGM5rRjGY0oxnNaEYzmtGMZjSjGc1oRjOa0YxmNKMZzWhGM5rRjGY0oxnNz6p53otuZBz7nvzVVS/WOr2+5fuq6tXYZP3V2FMZ+zJZvl7b6qxeIJ4GUdoL/FCWviKbfOk93fI3a5NefvT8NArc1I/CDKqVpHLavZCXUSxbem8+v5VjGXrrD7T4rL3T74ihenO5r15kVv+0AnmZKrAS6ZVs73ws0+MwVf2TmbichaOctL0h/iyRWBHK+7vPSt/lVpd/KdrpxE96ST4qeobU9eCmXtZ/x+5o0v4L2FRtha9eHc/Yl7rn0yjxleDr7GOdp1ldSuYLVHF0a4a0wvJDT6p46Dodw7tX11XVGy99GSh/ay/7dBEn4ziaTaUnvv9e/GP5+V3vfOImy/ffVYBtPGydf7E165CeOx6/UTZ6gQzH6US8FAPxb9F6FQQtcbD+jSTwR7LddTbO+h82SuPt0ZNEsWhfZY/S/0FcZWaWrrq0qz77ZzbjmA+QupQbL/XOrj70Psq5ODw8XHReNcVcdTnsV6aPurouYul+rHLzJ8N7TL+v+mv5dIfKrZUzLD0lL+TQO3eTxB+H0jtSJSKSs7wnP1TrytVAT2fJpF11LLIhPViMZ/VICoIDnafsqW9WtZKkcfRR6tlZfLeqpWjqjvx0rmdq+eXKT5WbWJmqqrKaSNanlSrhYTz5qGsVzusTj+gKx1TNJNz0WT918qyq9f1PZWsKdW1uit//eC/+e/LHO3F68u79L7/9JN6e/PTLkfj5+N2xnsCbbNaWd65aook0EkkUpyKcXWd+MBJ5SZNEuMkoW7z44VhDcdX3SudBZnY74kJ/collOotDMXXjRL4JIjdtu2rK38iG8sFnF/lnWp1ZvkR7YHb5CGXCn+qt9HK//szDPQ/29gtPXrqzIBXTOMrmMPmiI158t7d3dHR8/KLmwjPAAQ5wgAMc4AAHOMABDnCA8zxxRDK7zn4EFp5UHwrPnSuiWHqgAQ1oQAMa0IAGNKABDWhAA5pimtt8a9ZnNBfBTAIHOMABDnCAAxzgAAc4wAEOcKrg3J8b6KhzA09n1LmBQyf/C9urV1tb+/sgBSlIQQpSkIIUpCAFKUhBClKQgvRpkA5yUjelSPs56XA4GOztgBSkIAUpSEEKUpCCFKQgBSlIQQrSp0E6VKRvYp8gHeznpI6zuzscghSkIAUpSEEKUpCCFKQgBSlIQQrSp0G6pUjfT2YU6V5Oup9d2z+CFKQgBSlIQQpSkIIUpCAFKUhBCtKnQbqtSP8jPYp0Nyd9/froaHcXpCAFKUhBClKQghSkIAUpSEEKUpA+DdKd/DcTM0mR7uSkR0c7OyAFKUhBClKQghSkIAUpSEEKUpCC9KmQ7irSXyOqsuBgOyfd2xsMtrdBClKQghSkIAUpSEEKUpCCFKQgBWljpCsUL3Zv26Vid73UTwN5OnGnspfKu7T94udoFiflGPPHd772r2WY+FEYyCRXKJHY3BSvPE+4IlcSt346EUl0LYU3LLkzuRn33OlUhl67pWy3NkpuWF09N03jduuu1RE7fcOb5tlNA/2bknQeyAVe1w1HkyjO7m8F8tKAdqlxGYVp91b640mqNC6iwNPXWIzN6bT7vyiUA/HGD6U4TaPYHWf/nSfdLfEmiLuOOB1Nuq/Ez78Ho+u0m0SzbDD+95v47fjoR/W1VF6LLfH76f/EyWikvvtio2h4X24mo9ifpv8iv/Ny0/NvvtxM3kOLZVrC9w5bI+X7R1l3udljxufDYUvkfXjY8vxkGrjzAz8MsqbuRRCNPv7Qovky0cUjiHQ+ze5X3bh55d64i08L71TXjRsrNxWHwvOvp4HshfL29Gbcbn33mLEjtvr9/J/SsFOynpu6me7Zn63AvZBB66DlyUt3FqRiGkeXfiBbnUXL+V3rwOn1O60bN5jJ5f+P1OyU3ZNNOEdHx8etTx0tnQGTzpBJZ4tJZ5tJZ4dJZ5dJZ49JZ59Jx+lzCXF5tMPl0g6XTztcTu1webXD5dYOl187XI7tcHn2gMuzB2xzNZdnD7g8e2Dk2SKZXV+vHVetldFi6RnIkH1kJkP2kJkM2T9mMmTcm8mQUW8mQ8a8mQwZ8WYyZLybydCJzFCHyY/pNGaow+TJdBIz1GHyZTqFGeoweTOdwAx1mPyZTl+GOlzzMpM/07nLUEffn2/9MDVPWxfqI30dsnsMdcjuMdQhu8dQhwx3Qx0y3A11yHA31CHD3VCHDHdDHTp/mQpxeTSdwUyFuHyazmGmQlxeTWcxUyEuv6bzmKkQl2fTmcxUiG2u5vJsOpmZCul79v3fL0rPF6bSXH/tB73FAcQMJgb1mxjWb2KrfhPb9ZvYqd/Ebv0m9uo3sV+/ibXMXpeNBuLbaSDAnQYi3GkgxJ0GYtxpIMidBqLcaSDMnQbifNBAnA+ayOMNxPmggTgfVIvz0mMc9ZZVi3MeGUzQo8Fmgh4MNhP0WLCZoKdcNhP0jMtmgp5w2UzQ8y2bCXq6ZTNRsKzis9FAfBcsq/hsNBDhBcsqPhsNxHjBsorPRgNRXrCs4rPRQJwXLKv4bDSRxxuI84JlFZ+NanFeelqW3rJqcZwWgwl6NNhM0IPBZoIeCzYT9JTLZoKecdlM0BMumwl6vmUzQe+NYjNRsCGQzwa9o4rPBr3Zis8GvQ+Lzwa9RYvPBr0vkc8GvWWRzwa9m5HPBr3Rkc9GA3FesKzis9FEHm8gkRcsq/hsVEvlpYeS6C2rFqeWMJigR4PNBD0YbCbosWAzQS+r2EzQyyo2E/Syis0EvaxiM0FPt2wmCpZVfDboZRWfDXpZxWeDXlbx2aCXVXw26GUVnw16WcVng15W8dmgl1V8NhqI84JlFZ+NJvJ4A4m8YFnFZ6NaKi+t/a63rFoUh2cwQY8Gmwl6MNhM0GPBZoJeVrGZoJdVbCboZRWbCXpZxWaCnm7ZTBQsq/hs0MsqPhv0sorPBr2s4rNBL6v4bNDLKj4b9LKKzwa9rOKzQS+r+Gw0EOcFyyo+G03k8QYSecGyis9GtVReWmJXb1m1qMHLYIIeDTYT9GCwmaDHgs0EvaxiM0Evq9hM0MsqNhP0sorNBD3dspkoWFbx2aCXVXw26GUVnw16WcVng15W8dmgl1V8NuhlFZ8NelnFZ4NeVvHZaCDOC5ZVfDaayOMNJPKCZRWfjWqpvLSSod6yalHqkMEEPRpsJujBYDNBjwWbCXpZxWaCXlaxmaCXVWwm6GUVm4miulNMJgqLrXHZKKpWxWWjqJAVl42iGldcNorKX3HZKKr5xmWjqBwcl42iSnFcNoqKyHHZaCDOC5ZVfDaayOMNJPKCZRWfjfJU/kGnwuuyiLM4FKG8XRWQzevGtpObcSevAFtaKnZVCTqR6Y/RLPSS9na/IxxnuyOG6v8G23rlZu8yjPsC15535KZyHMXzV3d+sqikfP/8GuWmM4GT2JPxu5kqbKx9o+KYr3P8Kt1kFssFhqrNvOz3mkt9oxnNaEYzmtGMZjSjGc1oRjOa0YxmNKMZzWhGM5rRjGY0oxnNaEYzmtGMZjSjGc1oRjOa0YxmNKMZzWhGM5rRjGY0oxnNaEYzmtGMZjSj+Vk1z3vRjYxj35O/uurFWqfXt3xfVb0am6y/GnsqY18my9drW53VC8TTIEp7gR/K0ldkky+9p1v+Zm3Sy4+en0aBm/pRmEG1klROuxfyMoplS+/N57dyLENv/YEWn7V3+h0xVG8u99WLzOqfViAvUwVWIr2S7Z2PZXocpqp/MhOXs3CUk7Y3xJ8lEitCeX/3Wem73OryL0U7nfhJL8lHRc+Quh7c1Mv679gdTdp/AZuqrfDVq+MZ+1L3fBolvhJ8nX2s8zSrS8l8gSqObs2QVlh+6EkVD12nY3j36rqqeuOlLwPlb+1lny7iZBxHs6n0xPffi38sP7/rnU/cZPn+uwqwjYet8y+2Zh3Sc8fjN8pGL5DhOJ2Il2Ig/i1ar4KgJQ7Wv5EE/ki2u87GWf/DRmm8PXqSKBbtq+xR+j+Iq8zM0lWXdtVn/8xmHPMBUpdy46Xe2dWH3kc5F4eHh4vOq6aYqy6H/cr0UVfXRSzdj1Vu/mR4j+n3VX8tn+5QubVyhqWn5IUceudukvjjUHpHqkREcpb35IdqXbka6OksmbSrjkU2pAeL8aweSUFwoPOUPfXNqlaSNI4+Sj07i+9WtRRN3ZGfzvVMLb9c+alyEytTVVVWE8n6tFIlPIwnH3Wtwnl94hFd4ZiqmYSbPuunTp5Vtb7/qWxNoa7NTfH7H+/Ff0/+eCdOT969/+W3n8Tbk59+ORI/H7871hN4k83a8s5VSzSRRiKJ4vT/b+9se9u2tTj+/n4KXg1YFFzbseTYeVizi9Rx1gFrU9QdhjUoAlqibSWyJEhUEmPId58oy7l2EtWkHtp6988XcSqKf/5InXPIluox8eJZYgcWSVOaRIRGVrJ5cbyJhOJy7oXOyspMG2QkH1xCxuPQIwENI3bu+pTrVIT83eRRrlwbpdekJnPzFm2l22wIm4Qf6s308rj/TN09dXZ9x2ZjGrucBKGfxDC20yA7Pxwe9vuDwU7NiWeAAxzgAAc4wAEOcIADHOAA55+JQ6J4lvwVmNhMXCQ2nQuikNmgAQ1oQAMa0IAGNKABDWhAA5ov09ylr2Y9oRm5MQMOcIADHOAABzjAAQ5wgAMc4BTBefzeQEN8b+AwzvvewI6RnrCdnu7vHx2BFKQgBSlIQQpSkIIUpCAFKUhBCtLtIDVTUsrzSNspaadjmoc9kIIUpCAFKUhBClKQghSkIAUpSEG6HaQdQXoeOjmk5lFKahgHB50OSEEKUpCCFKQgBSlIQQpSkIIUpCDdDtJ9QfpxGueRHqakR0npvgYpSEEKUpCCFKQgBSlIQQpSkIIUpNtB2hWkfzA7j/QgJT076/cPDkAKUpCCFKQgBSlIQQpSkIIUpCAF6XaQ9tJ/mYhZHmkvJe33ez2QghSkIAUpSEEKUpCCFKQgBSlIQbotpAeC9K2fl1nQ7Kakh4em2e2CFKQgBSlIQQpSkIIUpCAFKUhBCtKvRrpEsUN6p28Uu29xh7tsOKUBa3F2z/WdN34cRpsx5s9bnjkz5kWO77ksShU2SOztkVPbJpSkSuTO4VMS+TNG7M6GltHtpEWDgHm2rom+td0NDZalRTkPde1ea5BeW7HRPGlkyjeK+NxlC7wm9aypHybtNZeNFWgzjbHv8eYdcyZTLjRGvmvLayyezTBofvI91iGvY/eGDLkf0gkjw3nU3Cfnbtg0yNCaNk/Jm/euNeNNRiNOPr0j7wb91+IuzmZkn7wffiIXliVu3dn90tN9tRdZoRPwn3PvebVnO7cvV+e2yRdLtIhjn2iWMP1+MlvU8Vh41dnXSDqFJ5rtRIFL58eO5yZVzZHrWzc/afl8iehiCITPg6S9mMW9a3pLF1e/2FKUWxoKKyUnxHZmgctaHrsb3k507YfnjA2y326nPzZ6nZC1KaeJ7uVfmktHzNWONZuNaexyEoT+2HGZ1ljUXN1rx0ar3dBuqRsz7bh31DpaKYdHDc0SoSpRSKJPvz8YaA8NKVWzFtVOLar7tah2a1Ht1aJ6UIvqYS2qR7WoGu16ZOvxLqMe9zLq8S+jHgcz6vEwox4XM+rxMaMeJzPq8TKzHi8za1rD6vEysx4vM0t4GYni2Wzt278L7BBCZiuISs6tmqjkzKqJSs6rmqhk7FITlYxcaqKScUtNVDJqqYlKxiw1UdmNgaJqLT4luy1QVK3Fq2Q3BYqqtfiV7JZAUbUWz5LdECiq1uJbstsBRdV61qtafEt2L6CoWtS37hyPl90GjMQN8qqS06qoKjmtiqqS06qoKhmyFFUlQ5aiqmTIUlSVDFmKqpIhS1FVdj+gKluPd8nuCFRl6/Ev2T2Bqmw9Hia7K1CVrcfHZPcFqrL1eJnszkBVtqY1rB4vk90cqMoqedlnmQOH7EiRnBCP3S3PM9JjDD26nTTSA4mNJxfLc8mI8dd+7NmR3m03iGF0G6QjfjO7cqcf9wnG43GrbfcpZxM/nJ/eO9HiXO9xKiQOPxOBi9Bm4YdYHLNJNxQc83WOt4xGccgWGOKkMHsEZY9z03Ok9a6GLHRYlOEmPWUPJHB93hKHWxu7jF4a92bSqJXaXeC7lDu+l0BpEWdBc8TGfsg0OUv6jU2YZ68PaHFN7yVW0BGWIA7DDPEjOy3deJC8lG1dTRgfeFzMT9LFOPaslFTfJX9JHJcKQvbY+nKjb4jijInOp06U2LVoJ9eRKCuNWsn8Dag11f8HrKq2xM/OBjPdq8CPHCF4llyWGc2yCJkXqEL/Tg1pieV4NhOO2zQaiq2X5bpow7HDXGFvejanCz+ZhH4cMJv8+CP5d3b9vnU1pVEWT4SD7a7Wzl+sTSakRSeTc9FHy2XehE/JK2KS/xLt1HU1crx+R+Q6FtObxu5l+/PuRn97NhI/JPp1MpT2T+Q66SYz1axfce0/J8RQf0CiCDPO9C6vP7duWBLeTk4Wk1dMMVXNHvu16lCXZRQyelOk8YNiG9X7xXxlozsRZi2MIbOUdGFsXS1eBWJ2+jJQdJnO5OdiU7l80EEcTfWizyJ5pMeL51nck1z3WGaULXFn0V4iHvo3TK6fxb1Fe/IDajl8LtdVdnPhUaVdLLsqqrIMJOthpYh7KAcfUZbuvB54SJMYqmoq7ibP+tBIV1Wp+x827SlE2dsj73//SP68+P0DGV58+Pjru1/Ibxe//NonbwYfBnIC50nUZvdUbNEI90nkJxtpL54ldmCRdIsYERpZyebF8SYSisu5FzorKzNtkJF8cAkZj0OPBDSM2LnrU65TEfJ3k0e5cm2UXpOazM1btJVusyFsEn74Bq9sPjmAzd7LFAeq3+QNUuAABzjAAQ5wgAMc4AAHOMDZepznL7gIopDZoAENaEADGtCABjSgAQ1oQAOaL9M8eyVQ0IhX/IADHOAABzjAAQ5wgAMc4AAHON8wUeJHNgtYSHkcMqKf7yJV4neVKvEPKizuDUs/Tmcjh3mciEcm8h4yO07mv0kO2ufbkQKxuwUpELtfLQVi+h9Pi6ZgqkinU5HOfkU63Yp0ehXpHFSkc1iRzlFFOmu5BUoJVWXRRlUmbVRl00ZVRm1UZdVGVWZtVGXXRlWGbVRl2WZVlm1WFqursmyzKss2lSxbPmXfmlTxJH0lZHJnqHgivhIyuX5fPNleCZlcny+eUK+ETK6/l0iaV0anIjvOX8ZKpMIro1ORKeevYSUS3JXRqcia8xewEmnrysTBiuw5f/UqkYyujE5F9py/dBVPMbcmUyKpXBmd3OkpkTiujE6uu5dIDldGJ9fdSySAK6OT6+5lkryVEqrKovNXsDKp20oJVWXU+YtYmYRspYSqsuv8daxMmrVSkbEqy85fysokTyslVJVl569mSIm2FSnRUI1qVKMa1ahGNapRjWpUoxrVqEY1qlH9PVXPW/4tC0PHZm+p+Icqo9VGSvyVkSAl/mNBSnylgpT4SImvUJAS/2lBSvynBSnxFQtS4iMl/osFKfGBAxzgAAc4wAEOcIADHOAABzjbkFASNKABDWhAAxrQgAY0oAENaLaH5v8mkSVwgAMc4AAHOMABDnCAAxzgFO/vG6TEP3NmzIsc33NZFCEh/veVEN8Pb8hgPHYsh3nW/DEN/tdNgJ/d/aRm9c/L3xefj+rZL48fI9+ei88pn7k//+tvnH9zxQ=="
               },
               {
                  "name" : "annual_peak_electric_demand",
                  "units" : "kW",
                  "value" : 107.02051
               },
               {
                  "name" : "first_year_capital_cost",
                  "units" : "$",
                  "value" : 0
               },
               {
                  "name" : "annual_utility_cost",
                  "units" : "$",
                  "value" : 0
               },
               {
                  "name" : "total_lifecycle_cost",
                  "units" : "$",
                  "value" : 0
               }
            ],
            "step_warnings" : []
         }
      }
   ],
   "updated_at" : "20170710T192359Z",
   "weather_file" : "USA_CO_Denver.Intl.AP.725650_TMY3.epw"
}
