{
   "completed_at" : "20170710T183235Z",
   "completed_status" : "Success",
   "created_at" : "2017-07-10 18:28:43 +0000",
   "current_step" : 5,
   "description" : "",
   "eplusout_err" : "Program Version,EnergyPlus, Version 8.7.0-78a111df4a, YMD=2017.07.10 18:30,IDD_Version 8.7.0\n   ************* IDF Context for following error/warning message:\n   ************* Note -- lines truncated at 300 characters, if necessary...\n   *************      5 Building,\n   ************* indicated Name=NECB 2011-MediumOffice-NECB HDD Method-CAN_AB_Fort.McMurray.719320_CWEC.epw created: 2017-07-10 18:28:49 +0000\n   ************* Only last 1 lines before error line shown.....\n   *************      6   NECB 2011-MediumOffice-NECB HDD Method-CAN_AB_Fort.McMurray.719320_CWEC.epw created: 2017-07-10 18:28:49 +0000, !- Name\n   ** Warning ** IP: IDF line~6 Alpha Argument length exceeds maximum, will be truncated=  NECB 2011-MediumOffice-NECB HDD Method-CAN_AB_Fort.McMurray.719320_CWEC.epw created: 2017-07-10 18:28:49 +000\n   **   ~~~   ** Will be processed as Alpha=NECB 2011-MEDIUMOFFICE-NECB HDD METHOD-CAN_AB_FORT.MCMURRAY.719320_CWEC.EPW CREATED: 2017-07-10 18:28:49 +0000\n   ************* Beginning Zone Sizing Calculations\n   ** Warning ** ProcessScheduleInput: Schedule:Day:Interval=\"ECONOMIZER MAX OA FRACTION 100 PCT DEFAULT\", Blank Schedule Type Limits Name input -- will not be validated.\n   ** Warning ** ProcessScheduleInput: Schedule:Day:Interval=\"SCHEDULE DAY 1\", Blank Schedule Type Limits Name input -- will not be validated.\n   ** Warning ** ProcessScheduleInput: Schedule:Day:Interval=\"SCHEDULE DAY 10\", Blank Schedule Type Limits Name input -- will not be validated.\n   ** Warning ** ProcessScheduleInput: Schedule:Day:Interval=\"SCHEDULE DAY 11\", Blank Schedule Type Limits Name input -- will not be validated.\n   ** Warning ** ProcessScheduleInput: Schedule:Day:Interval=\"SCHEDULE DAY 12\", Blank Schedule Type Limits Name input -- will not be validated.\n   ** Warning ** ProcessScheduleInput: Schedule:Day:Interval=\"SCHEDULE DAY 13\", Blank Schedule Type Limits Name input -- will not be validated.\n   ** Warning ** ProcessScheduleInput: Schedule:Day:Interval=\"SCHEDULE DAY 14\", Blank Schedule Type Limits Name input -- will not be validated.\n   ** Warning ** ProcessScheduleInput: Schedule:Day:Interval=\"SCHEDULE DAY 15\", Blank Schedule Type Limits Name input -- will not be validated.\n   ** Warning ** ProcessScheduleInput: Schedule:Day:Interval=\"SCHEDULE DAY 16\", Blank Schedule Type Limits Name input -- will not be validated.\n   ** Warning ** ProcessScheduleInput: Schedule:Day:Interval=\"SCHEDULE DAY 17\", Blank Schedule Type Limits Name input -- will not be validated.\n   ** Warning ** ProcessScheduleInput: Schedule:Day:Interval=\"SCHEDULE DAY 18\", Blank Schedule Type Limits Name input -- will not be validated.\n   ** Warning ** ProcessScheduleInput: Schedule:Day:Interval=\"SCHEDULE DAY 19\", Blank Schedule Type Limits Name input -- will not be validated.\n   ** Warning ** ProcessScheduleInput: Schedule:Day:Interval=\"SCHEDULE DAY 2\", Blank Schedule Type Limits Name input -- will not be validated.\n   ** Warning ** ProcessScheduleInput: Schedule:Day:Interval=\"SCHEDULE DAY 20\", Blank Schedule Type Limits Name input -- will not be validated.\n   ** Warning ** ProcessScheduleInput: Schedule:Day:Interval=\"SCHEDULE DAY 21\", Blank Schedule Type Limits Name input -- will not be validated.\n   ** Warning ** ProcessScheduleInput: Schedule:Day:Interval=\"SCHEDULE DAY 22\", Blank Schedule Type Limits Name input -- will not be validated.\n   ** Warning ** ProcessScheduleInput: Schedule:Day:Interval=\"SCHEDULE DAY 23\", Blank Schedule Type Limits Name input -- will not be validated.\n   ** Warning ** ProcessScheduleInput: Schedule:Day:Interval=\"SCHEDULE DAY 24\", Blank Schedule Type Limits Name input -- will not be validated.\n   ** Warning ** ProcessScheduleInput: Schedule:Day:Interval=\"SCHEDULE DAY 25\", Blank Schedule Type Limits Name input -- will not be validated.\n   ** Warning ** ProcessScheduleInput: Schedule:Day:Interval=\"SCHEDULE DAY 26\", Blank Schedule Type Limits Name input -- will not be validated.\n   ** Warning ** ProcessScheduleInput: Schedule:Day:Interval=\"SCHEDULE DAY 27\", Blank Schedule Type Limits Name input -- will not be validated.\n   ** Warning ** ProcessScheduleInput: Schedule:Day:Interval=\"SCHEDULE DAY 28\", Blank Schedule Type Limits Name input -- will not be validated.\n   ** Warning ** ProcessScheduleInput: Schedule:Day:Interval=\"SCHEDULE DAY 29\", Blank Schedule Type Limits Name input -- will not be validated.\n   ** Warning ** ProcessScheduleInput: Schedule:Day:Interval=\"SCHEDULE DAY 30\", Blank Schedule Type Limits Name input -- will not be validated.\n   ** Warning ** ProcessScheduleInput: Schedule:Day:Interval=\"SCHEDULE DAY 31\", Blank Schedule Type Limits Name input -- will not be validated.\n   ** Warning ** ProcessScheduleInput: Schedule:Day:Interval=\"SCHEDULE DAY 32\", Blank Schedule Type Limits Name input -- will not be validated.\n   ** Warning ** ProcessScheduleInput: Schedule:Day:Interval=\"SCHEDULE DAY 33\", Blank Schedule Type Limits Name input -- will not be validated.\n   ** Warning ** ProcessScheduleInput: Schedule:Day:Interval=\"SCHEDULE DAY 34\", Blank Schedule Type Limits Name input -- will not be validated.\n   ** Warning ** ProcessScheduleInput: Schedule:Day:Interval=\"SCHEDULE DAY 35\", Blank Schedule Type Limits Name input -- will not be validated.\n   ** Warning ** ProcessScheduleInput: Schedule:Day:Interval=\"SCHEDULE DAY 36\", Blank Schedule Type Limits Name input -- will not be validated.\n   ** Warning ** ProcessScheduleInput: Schedule:Day:Interval=\"SCHEDULE DAY 37\", Blank Schedule Type Limits Name input -- will not be validated.\n   ** Warning ** ProcessScheduleInput: Schedule:Day:Interval=\"SCHEDULE DAY 38\", Blank Schedule Type Limits Name input -- will not be validated.\n   ** Warning ** ProcessScheduleInput: Schedule:Day:Interval=\"SCHEDULE DAY 39\", Blank Schedule Type Limits Name input -- will not be validated.\n   ** Warning ** ProcessScheduleInput: Schedule:Day:Interval=\"SCHEDULE DAY 40\", Blank Schedule Type Limits Name input -- will not be validated.\n   ** Warning ** ProcessScheduleInput: Schedule:Day:Interval=\"SCHEDULE DAY 41\", Blank Schedule Type Limits Name input -- will not be validated.\n   ** Warning ** ProcessScheduleInput: Schedule:Day:Interval=\"SCHEDULE DAY 42\", Blank Schedule Type Limits Name input -- will not be validated.\n   ** Warning ** ProcessScheduleInput: Schedule:Day:Interval=\"SCHEDULE DAY 43\", Blank Schedule Type Limits Name input -- will not be validated.\n   ** Warning ** ProcessScheduleInput: Schedule:Day:Interval=\"SCHEDULE DAY 44\", Blank Schedule Type Limits Name input -- will not be validated.\n   ** Warning ** ProcessScheduleInput: Schedule:Day:Interval=\"SCHEDULE DAY 45\", Blank Schedule Type Limits Name input -- will not be validated.\n   ** Warning ** ProcessScheduleInput: Schedule:Day:Interval=\"SCHEDULE DAY 46\", Blank Schedule Type Limits Name input -- will not be validated.\n   ** Warning ** ProcessScheduleInput: Schedule:Day:Interval=\"SCHEDULE DAY 47\", Blank Schedule Type Limits Name input -- will not be validated.\n   ** Warning ** ProcessScheduleInput: Schedule:Day:Interval=\"SCHEDULE DAY 48\", Blank Schedule Type Limits Name input -- will not be validated.\n   ** Warning ** ProcessScheduleInput: Schedule:Day:Interval=\"SCHEDULE DAY 49\", Blank Schedule Type Limits Name input -- will not be validated.\n   ** Warning ** ProcessScheduleInput: Schedule:Day:Interval=\"SCHEDULE DAY 50\", Blank Schedule Type Limits Name input -- will not be validated.\n   ** Warning ** ProcessScheduleInput: Schedule:Day:Interval=\"SCHEDULE DAY 51\", Blank Schedule Type Limits Name input -- will not be validated.\n   ** Warning ** ProcessScheduleInput: Schedule:Day:Interval=\"SCHEDULE DAY 52\", Blank Schedule Type Limits Name input -- will not be validated.\n   ** Warning ** ProcessScheduleInput: Schedule:Day:Interval=\"SCHEDULE DAY 53\", Blank Schedule Type Limits Name input -- will not be validated.\n   ** Warning ** ProcessScheduleInput: Schedule:Day:Interval=\"SCHEDULE DAY 54\", Blank Schedule Type Limits Name input -- will not be validated.\n   ** Warning ** ProcessScheduleInput: Schedule:Day:Interval=\"SCHEDULE DAY 55\", Blank Schedule Type Limits Name input -- will not be validated.\n   ** Warning ** ProcessScheduleInput: Schedule:Day:Interval=\"SCHEDULE DAY 56\", Blank Schedule Type Limits Name input -- will not be validated.\n   ** Warning ** ProcessScheduleInput: Schedule:Day:Interval=\"SCHEDULE DAY 57\", Blank Schedule Type Limits Name input -- will not be validated.\n   ** Warning ** ProcessScheduleInput: Schedule:Day:Interval=\"SCHEDULE DAY 7\", Blank Schedule Type Limits Name input -- will not be validated.\n   ** Warning ** ProcessScheduleInput: Schedule:Day:Interval=\"SCHEDULE DAY 8\", Blank Schedule Type Limits Name input -- will not be validated.\n   ** Warning ** ProcessScheduleInput: Schedule:Day:Interval=\"SCHEDULE DAY 9\", Blank Schedule Type Limits Name input -- will not be validated.\n   ** Warning ** ProcessScheduleInput: Schedule:Year=\"ECONOMIZER MAX OA FRACTION 100 PCT\", Blank Schedule Type Limits Name input -- will not be validated.\n   ** Warning ** ProcessScheduleInput: Schedule:Year=\"SCHEDULE RULESET 10\", Blank Schedule Type Limits Name input -- will not be validated.\n   ** Warning ** ProcessScheduleInput: Schedule:Year=\"SCHEDULE RULESET 11\", Blank Schedule Type Limits Name input -- will not be validated.\n   ** Warning ** ProcessScheduleInput: Schedule:Year=\"SCHEDULE RULESET 12\", Blank Schedule Type Limits Name input -- will not be validated.\n   ** Warning ** ProcessScheduleInput: Schedule:Year=\"SCHEDULE RULESET 13\", Blank Schedule Type Limits Name input -- will not be validated.\n   ** Warning ** ProcessScheduleInput: Schedule:Year=\"SCHEDULE RULESET 14\", Blank Schedule Type Limits Name input -- will not be validated.\n   ** Warning ** ProcessScheduleInput: Schedule:Year=\"SCHEDULE RULESET 15\", Blank Schedule Type Limits Name input -- will not be validated.\n   ** Warning ** ProcessScheduleInput: Schedule:Year=\"SCHEDULE RULESET 16\", Blank Schedule Type Limits Name input -- will not be validated.\n   ** Warning ** ProcessScheduleInput: Schedule:Year=\"SCHEDULE RULESET 17\", Blank Schedule Type Limits Name input -- will not be validated.\n   ** Warning ** ProcessScheduleInput: Schedule:Year=\"SCHEDULE RULESET 18\", Blank Schedule Type Limits Name input -- will not be validated.\n   ** Warning ** ProcessScheduleInput: Schedule:Year=\"SCHEDULE RULESET 19\", Blank Schedule Type Limits Name input -- will not be validated.\n   ** Warning ** ProcessScheduleInput: Schedule:Year=\"SCHEDULE RULESET 20\", Blank Schedule Type Limits Name input -- will not be validated.\n   ** Warning ** ProcessScheduleInput: Schedule:Year=\"SCHEDULE RULESET 21\", Blank Schedule Type Limits Name input -- will not be validated.\n   ** Warning ** ProcessScheduleInput: Schedule:Year=\"SCHEDULE RULESET 22\", Blank Schedule Type Limits Name input -- will not be validated.\n   ** Warning ** ProcessScheduleInput: Schedule:Year=\"SCHEDULE RULESET 23\", Blank Schedule Type Limits Name input -- will not be validated.\n   ** Warning ** ProcessScheduleInput: Schedule:Year=\"SCHEDULE RULESET 24\", Blank Schedule Type Limits Name input -- will not be validated.\n   ** Warning ** ProcessScheduleInput: Schedule:Year=\"SCHEDULE RULESET 25\", Blank Schedule Type Limits Name input -- will not be validated.\n   ** Warning ** ProcessScheduleInput: Schedule:Year=\"SCHEDULE RULESET 26\", Blank Schedule Type Limits Name input -- will not be validated.\n   ** Warning ** ProcessScheduleInput: Schedule:Year=\"SCHEDULE RULESET 27\", Blank Schedule Type Limits Name input -- will not be validated.\n   ** Warning ** ProcessScheduleInput: Schedule:Year=\"SCHEDULE RULESET 28\", Blank Schedule Type Limits Name input -- will not be validated.\n   ** Warning ** ProcessScheduleInput: Schedule:Year=\"SCHEDULE RULESET 29\", Blank Schedule Type Limits Name input -- will not be validated.\n   ** Warning ** ProcessScheduleInput: Schedule:Year=\"SCHEDULE RULESET 3\", Blank Schedule Type Limits Name input -- will not be validated.\n   ** Warning ** ProcessScheduleInput: Schedule:Year=\"SCHEDULE RULESET 30\", Blank Schedule Type Limits Name input -- will not be validated.\n   ** Warning ** ProcessScheduleInput: Schedule:Year=\"SCHEDULE RULESET 31\", Blank Schedule Type Limits Name input -- will not be validated.\n   ** Warning ** ProcessScheduleInput: Schedule:Year=\"SCHEDULE RULESET 32\", Blank Schedule Type Limits Name input -- will not be validated.\n   ** Warning ** ProcessScheduleInput: Schedule:Year=\"SCHEDULE RULESET 33\", Blank Schedule Type Limits Name input -- will not be validated.\n   ** Warning ** ProcessScheduleInput: Schedule:Year=\"SCHEDULE RULESET 34\", Blank Schedule Type Limits Name input -- will not be validated.\n   ** Warning ** ProcessScheduleInput: Schedule:Year=\"SCHEDULE RULESET 35\", Blank Schedule Type Limits Name input -- will not be validated.\n   ** Warning ** ProcessScheduleInput: Schedule:Year=\"SCHEDULE RULESET 36\", Blank Schedule Type Limits Name input -- will not be validated.\n   ** Warning ** ProcessScheduleInput: Schedule:Year=\"SCHEDULE RULESET 37\", Blank Schedule Type Limits Name input -- will not be validated.\n   ** Warning ** ProcessScheduleInput: Schedule:Year=\"SCHEDULE RULESET 38\", Blank Schedule Type Limits Name input -- will not be validated.\n   ** Warning ** ProcessScheduleInput: Schedule:Year=\"SCHEDULE RULESET 39\", Blank Schedule Type Limits Name input -- will not be validated.\n   ** Warning ** ProcessScheduleInput: Schedule:Year=\"SCHEDULE RULESET 4\", Blank Schedule Type Limits Name input -- will not be validated.\n   ** Warning ** ProcessScheduleInput: Schedule:Year=\"SCHEDULE RULESET 40\", Blank Schedule Type Limits Name input -- will not be validated.\n   ** Warning ** ProcessScheduleInput: Schedule:Year=\"SCHEDULE RULESET 41\", Blank Schedule Type Limits Name input -- will not be validated.\n   ** Warning ** ProcessScheduleInput: Schedule:Year=\"SCHEDULE RULESET 42\", Blank Schedule Type Limits Name input -- will not be validated.\n   ** Warning ** ProcessScheduleInput: Schedule:Year=\"SCHEDULE RULESET 43\", Blank Schedule Type Limits Name input -- will not be validated.\n   ** Warning ** ProcessScheduleInput: Schedule:Year=\"SCHEDULE RULESET 44\", Blank Schedule Type Limits Name input -- will not be validated.\n   ** Warning ** ProcessScheduleInput: Schedule:Year=\"SCHEDULE RULESET 45\", Blank Schedule Type Limits Name input -- will not be validated.\n   ** Warning ** ProcessScheduleInput: Schedule:Year=\"SCHEDULE RULESET 46\", Blank Schedule Type Limits Name input -- will not be validated.\n   ** Warning ** ProcessScheduleInput: Schedule:Year=\"SCHEDULE RULESET 47\", Blank Schedule Type Limits Name input -- will not be validated.\n   ** Warning ** ProcessScheduleInput: Schedule:Year=\"SCHEDULE RULESET 5\", Blank Schedule Type Limits Name input -- will not be validated.\n   ** Warning ** ProcessScheduleInput: Schedule:Year=\"SCHEDULE RULESET 6\", Blank Schedule Type Limits Name input -- will not be validated.\n   ** Warning ** ProcessScheduleInput: Schedule:Year=\"SCHEDULE RULESET 7\", Blank Schedule Type Limits Name input -- will not be validated.\n   ** Warning ** ProcessScheduleInput: Schedule:Year=\"SCHEDULE RULESET 8\", Blank Schedule Type Limits Name input -- will not be validated.\n   ** Warning ** ProcessScheduleInput: Schedule:Year=\"SCHEDULE RULESET 9\", Blank Schedule Type Limits Name input -- will not be validated.\n   ** Warning ** ProcessScheduleInput: Schedule:Constant=\"ALWAYS OFF DISCRETE\", Blank Schedule Type Limits Name input -- will not be validated.\n   ** Warning ** ProcessScheduleInput: Schedule:Constant=\"ALWAYS ON CONTINUOUS\", Blank Schedule Type Limits Name input -- will not be validated.\n   ** Warning ** CheckUsedConstructions: There are 24 nominally unused constructions in input.\n   **   ~~~   ** For explicit details on each unused construction, use Output:Diagnostics,DisplayExtraWarnings;\n   ************* Beginning System Sizing Calculations\n   ** Warning ** Since Zone Minimum Air Flow Input Method = CONSTANT, input for Fixed Minimum Air Flow Rate will be ignored.\n   **   ~~~   ** Occurs in AirTerminal:SingleDuct:VAV:Reheat = AIR TERMINAL SINGLE DUCT VAV REHEAT 2\n   ** Warning ** Since Zone Minimum Air Flow Input Method = CONSTANT, input for Fixed Minimum Air Flow Rate will be ignored.\n   **   ~~~   ** Occurs in AirTerminal:SingleDuct:VAV:Reheat = AIR TERMINAL SINGLE DUCT VAV REHEAT 9\n   ** Warning ** Since Zone Minimum Air Flow Input Method = CONSTANT, input for Fixed Minimum Air Flow Rate will be ignored.\n   **   ~~~   ** Occurs in AirTerminal:SingleDuct:VAV:Reheat = AIR TERMINAL SINGLE DUCT VAV REHEAT 15\n   ** Warning ** Since Zone Minimum Air Flow Input Method = CONSTANT, input for Fixed Minimum Air Flow Rate will be ignored.\n   **   ~~~   ** Occurs in AirTerminal:SingleDuct:VAV:Reheat = AIR TERMINAL SINGLE DUCT VAV REHEAT 3\n   ** Warning ** Since Zone Minimum Air Flow Input Method = CONSTANT, input for Fixed Minimum Air Flow Rate will be ignored.\n   **   ~~~   ** Occurs in AirTerminal:SingleDuct:VAV:Reheat = AIR TERMINAL SINGLE DUCT VAV REHEAT 1\n   ** Warning ** Since Zone Minimum Air Flow Input Method = CONSTANT, input for Fixed Minimum Air Flow Rate will be ignored.\n   **   ~~~   ** Occurs in AirTerminal:SingleDuct:VAV:Reheat = AIR TERMINAL SINGLE DUCT VAV REHEAT 4\n   ** Warning ** Since Zone Minimum Air Flow Input Method = CONSTANT, input for Fixed Minimum Air Flow Rate will be ignored.\n   **   ~~~   ** Occurs in AirTerminal:SingleDuct:VAV:Reheat = AIR TERMINAL SINGLE DUCT VAV REHEAT 5\n   ** Warning ** Since Zone Minimum Air Flow Input Method = CONSTANT, input for Fixed Minimum Air Flow Rate will be ignored.\n   **   ~~~   ** Occurs in AirTerminal:SingleDuct:VAV:Reheat = AIR TERMINAL SINGLE DUCT VAV REHEAT 8\n   ** Warning ** Since Zone Minimum Air Flow Input Method = CONSTANT, input for Fixed Minimum Air Flow Rate will be ignored.\n   **   ~~~   ** Occurs in AirTerminal:SingleDuct:VAV:Reheat = AIR TERMINAL SINGLE DUCT VAV REHEAT 6\n   ** Warning ** Since Zone Minimum Air Flow Input Method = CONSTANT, input for Fixed Minimum Air Flow Rate will be ignored.\n   **   ~~~   ** Occurs in AirTerminal:SingleDuct:VAV:Reheat = AIR TERMINAL SINGLE DUCT VAV REHEAT 10\n   ** Warning ** Since Zone Minimum Air Flow Input Method = CONSTANT, input for Fixed Minimum Air Flow Rate will be ignored.\n   **   ~~~   ** Occurs in AirTerminal:SingleDuct:VAV:Reheat = AIR TERMINAL SINGLE DUCT VAV REHEAT 7\n   ** Warning ** Since Zone Minimum Air Flow Input Method = CONSTANT, input for Fixed Minimum Air Flow Rate will be ignored.\n   **   ~~~   ** Occurs in AirTerminal:SingleDuct:VAV:Reheat = AIR TERMINAL SINGLE DUCT VAV REHEAT 14\n   ** Warning ** Since Zone Minimum Air Flow Input Method = CONSTANT, input for Fixed Minimum Air Flow Rate will be ignored.\n   **   ~~~   ** Occurs in AirTerminal:SingleDuct:VAV:Reheat = AIR TERMINAL SINGLE DUCT VAV REHEAT 13\n   ** Warning ** Since Zone Minimum Air Flow Input Method = CONSTANT, input for Fixed Minimum Air Flow Rate will be ignored.\n   **   ~~~   ** Occurs in AirTerminal:SingleDuct:VAV:Reheat = AIR TERMINAL SINGLE DUCT VAV REHEAT 12\n   ** Warning ** Since Zone Minimum Air Flow Input Method = CONSTANT, input for Fixed Minimum Air Flow Rate will be ignored.\n   **   ~~~   ** Occurs in AirTerminal:SingleDuct:VAV:Reheat = AIR TERMINAL SINGLE DUCT VAV REHEAT 11\n   ************* Beginning Plant Sizing Calculations\n   ** Warning ** The design coil load is zero for Coil:Heating:Water COIL HEATING WATER 3\n   **   ~~~   ** The autosize value for maximum water flow rate is zero\n   **   ~~~   ** To change this, input a value for UA, change the heating design day, or raise the\n   **   ~~~   **   system heating design supply air temperature. Also check to make sure the Preheat\n   **   ~~~   **   Design Temperature is not the same as the Central Heating Design Supply Air Temperature. \n   ** Warning ** Missing temperature setpoint for LeavingSetpointModulated mode chiller named PRIMARY CHILLER WATERCOOLED SCROLL 66TONS 0.8KW/TON\n   **   ~~~   **   A temperature setpoint is needed at the outlet node of a chiller in variable flow mode, use a SetpointManager\n   **   ~~~   **   The overall loop setpoint will be assumed for chiller. The simulation continues ... \n   ** Warning ** Missing temperature setpoint for LeavingSetpointModulated mode chiller named SECONDARY CHILLER WATERCOOLED SCROLL 0TONS 0.8KW/TON\n   **   ~~~   **   A temperature setpoint is needed at the outlet node of a chiller in variable flow mode, use a SetpointManager\n   **   ~~~   **   The overall loop setpoint will be assumed for chiller. The simulation continues ... \n   ** Warning ** Missing temperature setpoint for LeavingSetpointModulated mode Boiler named PRIMARY BOILER 1448KBTU/HR 0.83 THERMAL EFF\n   **   ~~~   **   A temperature setpoint is needed at the outlet node of a boiler in variable flow mode, use a SetpointManager\n   **   ~~~   **   The overall loop setpoint will be assumed for Boiler. The simulation continues ... \n   ** Warning ** Output:Meter: invalid Name=\"DISTRICTCOOLING:FACILITY\" - not found.\n   ** Warning ** Output:Meter: invalid Name=\"DISTRICTHEATING:FACILITY\" - not found.\n   ** Warning ** Output:Meter:MeterFileOnly requested for \"Electricity:Facility\" (TimeStep), already on \"Output:Meter\". Will report to both eplusout.eso and eplusout.mtr\n   ************* Testing Individual Branch Integrity\n   ************* All Branches passed integrity testing\n   ************* Testing Individual Supply Air Path Integrity\n   ************* All Supply Air Paths passed integrity testing\n   ************* Testing Individual Return Air Path Integrity\n   ************* All Return Air Paths passed integrity testing\n   ************* No node connection errors were found.\n   ************* Beginning Simulation\n   ** Warning ** SimHVAC: Maximum iterations (25) exceeded for all HVAC loops, at RUN PERIOD 1, 06/21 17:00 - 17:15\n   **   ~~~   ** The solution for one or more of the Air Loop HVAC systems did not appear to converge\n   **   ~~~   ** ...use Output:Diagnostics,DisplayExtraWarnings; to show more details on each max iteration exceeded.\n   ** Warning ** SimHVAC: Maximum iterations (25) exceeded for all HVAC loops, at RUN PERIOD 1, 09/05 14:45 - 15:00\n   **   ~~~   ** The solution for one or more of the Air Loop HVAC systems did not appear to converge\n   ** Warning ** SimHVAC: Maximum iterations (25) exceeded for all HVAC loops, at RUN PERIOD 1, 09/05 14:45 - 14:52\n   **   ~~~   ** The solution for one or more of the Air Loop HVAC systems did not appear to converge\n   ** Warning ** SimHVAC: Maximum iterations (25) exceeded for all HVAC loops, at RUN PERIOD 1, 09/05 15:15 - 15:30\n   **   ~~~   ** The solution for one or more of the Air Loop HVAC systems did not appear to converge\n   ************* Simulation Error Summary *************\n   ************* There are 9 unused schedules in input.\n   ************* There are 9 unused week schedules in input.\n   ************* There are 24 unused day schedules in input.\n   ************* Use Output:Diagnostics,DisplayUnusedSchedules; to see them.\n   *************\n   ************* ===== Final Error Summary =====\n   ************* The following error categories occurred.  Consider correcting or noting.\n   ************* Nominally Unused Constructions\n   ************* ..The nominally unused constructions warning is provided to alert you to potential conditions that can cause\n   ************* ..extra time during simulation. Each construction is calculated by the algorithm indicated in the HeatBalanceAlgorithm\n   ************* ..object. You may remove the constructions indicated (when you use the DisplayExtraWarnings option).\n   *************\n   ************* EnergyPlus Warmup Error Summary. During Warmup: 0 Warning; 0 Severe Errors.\n   ************* EnergyPlus Sizing Error Summary. During Sizing: 118 Warning; 0 Severe Errors.\n   ************* EnergyPlus Completed Successfully-- 130 Warning; 0 Severe Errors; Elapsed Time=00hr 02min  0.47sec\n",
   "file_format_version" : "0.0.1",
   "file_paths" : [ "../weather", "../seeds", "../seed" ],
   "hash" : "F5E6C010",
   "measure_paths" : [ "../measures" ],
   "name" : "LHS Autogenerated 201",
   "osa_id" : "4fef0e0f-5396-4c55-a6e1-2cd6803db3ab",
   "osd_id" : "ee2137b3-604b-4424-908f-448bc78d6b95",
   "run_directory" : "./run",
   "seed_file" : "seed.osm",
   "started_at" : "20170710T182846Z",
   "steps" : [
      {
         "arguments" : {
            "__SKIP__" : false,
            "building_type" : "MediumOffice",
            "climate_zone" : "NECB HDD Method",
            "epw_file" : "CAN_AB_Fort.McMurray.719320_CWEC.epw",
            "template" : "NECB 2011"
         },
         "measure_dir_name" : "create_prototype_building",
         "name" : "create_prototype_building",
         "result" : {
            "completed_at" : "20170710T182952Z",
            "measure_class_name" : "CreatePrototypeBuilding",
            "measure_display_name" : "Create Prototype Building",
            "measure_name" : "create_prototype_building",
            "measure_taxonomy" : "Whole Building.Space Types",
            "measure_type" : "ModelMeasure",
            "measure_uid" : "ae90fsd7-a651-467a-bc8d-29d310b0f937",
            "measure_version_id" : "c6ec5c18-5595-459f-a082-09a19c8c869c",
            "measure_version_modified" : "20170519T182315Z",
            "measure_xml_checksum" : "057E8D9D",
            "started_at" : "20170710T182848Z",
            "stderr" : "",
            "stdout" : "[OpenStudio.Measure] <0> OSArgumentVector is deprecated, use OpenStudio::Measure::OSArgumentVector instead.\n[openstudio.EpwFile] <0> Successive data points (1973-Jan-31 to 1971-Feb-01, ending on line 753) are greater than 1 day apart in EPW file '/usr/local/bundle/bundler/gems/openstudio-standards-f448df66933d/openstudio-standards/data/weather/CAN_AB_Fort.McMurray.719320_CWEC.epw'. Data will be treated as typical (TMY)\n[openstudio.setFileExtension] <0> Path p, '/usr/local/bundle/bundler/gems/openstudio-standards-f448df66933d/openstudio-standards/data/weather/CAN_AB_Fort.McMurray.719320_CWEC.ddy', has an unexpected file extension. Was expecting 'idf'.\n[openstudio.model.YearDescription] <1> 'UseWeatherFile' is not yet a supported option for YearDescription\n[openstudio.model.YearDescription] <1> 'UseWeatherFile' is not yet a supported option for YearDescription\n[openstudio.setFileExtension] <0> Path p, '/usr/local/bundle/bundler/gems/openstudio-standards-f448df66933d/openstudio-standards/data/weather/CAN_AB_Fort.McMurray.719320_CWEC.ddy', has an unexpected file extension. Was expecting 'idf'.\n[openstudio.model.YearDescription] <1> 'UseWeatherFile' is not yet a supported option for YearDescription\n[openstudio.model.YearDescription] <1> 'UseWeatherFile' is not yet a supported option for YearDescription\n[openstudio.EpwFile] <0> Successive data points (1973-Jan-31 to 1971-Feb-01, ending on line 753) are greater than 1 day apart in EPW file '/usr/local/bundle/bundler/gems/openstudio-standards-f448df66933d/openstudio-standards/data/weather/CAN_AB_Fort.McMurray.719320_CWEC.epw'. Data will be treated as typical (TMY)\n[openstudio.weather.Model] <0> Could not find ground temperatures; will use generic temperatures, which will skew results.\n[openstudio.setFileExtension] <0> Path p, '/usr/local/bundle/bundler/gems/openstudio-standards-f448df66933d/openstudio-standards/data/weather/CAN_AB_Fort.McMurray.719320_CWEC.ddy', has an unexpected file extension. Was expecting 'idf'.\n[openstudio.model.YearDescription] <1> 'UseWeatherFile' is not yet a supported option for YearDescription\n[openstudio.model.YearDescription] <1> 'UseWeatherFile' is not yet a supported option for YearDescription\n[openstudio.EpwFile] <0> Successive data points (1973-Jan-31 to 1971-Feb-01, ending on line 753) are greater than 1 day apart in EPW file '/usr/local/bundle/bundler/gems/openstudio-standards-f448df66933d/openstudio-standards/data/weather/CAN_AB_Fort.McMurray.719320_CWEC.epw'. Data will be treated as typical (TMY)\n[openstudio.setFileExtension] <0> Path p, '/usr/local/bundle/bundler/gems/openstudio-standards-f448df66933d/openstudio-standards/data/weather/CAN_AB_Fort.McMurray.719320_CWEC.ddy', has an unexpected file extension. Was expecting 'idf'.\n[openstudio.model.YearDescription] <1> 'UseWeatherFile' is not yet a supported option for YearDescription\n[openstudio.model.YearDescription] <1> 'UseWeatherFile' is not yet a supported option for YearDescription\n[openstudio.setFileExtension] <0> Path p, '/usr/local/bundle/bundler/gems/openstudio-standards-f448df66933d/openstudio-standards/data/weather/CAN_AB_Fort.McMurray.719320_CWEC.ddy', has an unexpected file extension. Was expecting 'idf'.\n[openstudio.model.YearDescription] <1> 'UseWeatherFile' is not yet a supported option for YearDescription\n[openstudio.model.YearDescription] <1> 'UseWeatherFile' is not yet a supported option for YearDescription\n[openstudio.EpwFile] <0> Successive data points (1973-Jan-31 to 1971-Feb-01, ending on line 753) are greater than 1 day apart in EPW file '/usr/local/bundle/bundler/gems/openstudio-standards-f448df66933d/openstudio-standards/data/weather/CAN_AB_Fort.McMurray.719320_CWEC.epw'. Data will be treated as typical (TMY)\n[openstudio.setFileExtension] <0> Path p, '/usr/local/bundle/bundler/gems/openstudio-standards-f448df66933d/openstudio-standards/data/weather/CAN_AB_Fort.McMurray.719320_CWEC.ddy', has an unexpected file extension. Was expecting 'idf'.\n[openstudio.model.YearDescription] <1> 'UseWeatherFile' is not yet a supported option for YearDescription\n[openstudio.model.YearDescription] <1> 'UseWeatherFile' is not yet a supported option for YearDescription\n[openstudio.setFileExtension] <0> Path p, '/usr/local/bundle/bundler/gems/openstudio-standards-f448df66933d/openstudio-standards/data/weather/CAN_AB_Fort.McMurray.719320_CWEC.ddy', has an unexpected file extension. Was expecting 'idf'.\n[openstudio.model.YearDescription] <1> 'UseWeatherFile' is not yet a supported option for YearDescription\n[openstudio.model.YearDescription] <1> 'UseWeatherFile' is not yet a supported option for YearDescription\n[utilities.idf.WorkspaceObject] <0> Object of type 'Schedule:Constant' and named 'Always Off Discrete', points to an object named OnOff 1 from field 1, but that object cannot be located.\n[utilities.idf.WorkspaceObject] <0> Object of type 'Schedule:Constant' and named 'Always On Continuous', points to an object named Fractional 1 from field 1, but that object cannot be located.\n[utilities.idf.WorkspaceObject] <0> Object of type 'Schedule:Constant' and named 'Always Off Discrete', points to an object named OnOff 1 from field 1, but that object cannot be located.\n[utilities.idf.WorkspaceObject] <0> Object of type 'Schedule:Constant' and named 'Always On Continuous', points to an object named Fractional 1 from field 1, but that object cannot be located.\n[openstudio.standards.Fan] <0> For Fan Variable Volume 1, there is no greater nominal HP.  Use the efficiency of the largest motor category.\n[openstudio.standards.Fan] <0> For Fan Variable Volume 2, there is no greater nominal HP.  Use the efficiency of the largest motor category.\n[openstudio.standards.Fan] <0> For Fan Variable Volume 3, there is no greater nominal HP.  Use the efficiency of the largest motor category.\n[openstudio.EpwFile] <0> Successive data points (1973-Jan-31 to 1971-Feb-01, ending on line 753) are greater than 1 day apart in EPW file '/usr/local/bundle/bundler/gems/openstudio-standards-f448df66933d/openstudio-standards/data/weather/CAN_AB_Fort.McMurray.719320_CWEC.epw'. Data will be treated as typical (TMY)\n[openstudio.setFileExtension] <0> Path p, '/usr/local/bundle/bundler/gems/openstudio-standards-f448df66933d/openstudio-standards/data/weather/CAN_AB_Fort.McMurray.719320_CWEC.ddy', has an unexpected file extension. Was expecting 'idf'.\n[openstudio.model.YearDescription] <1> 'UseWeatherFile' is not yet a supported option for YearDescription\n[openstudio.model.YearDescription] <1> 'UseWeatherFile' is not yet a supported option for YearDescription\n[openstudio.setFileExtension] <0> Path p, '/usr/local/bundle/bundler/gems/openstudio-standards-f448df66933d/openstudio-standards/data/weather/CAN_AB_Fort.McMurray.719320_CWEC.ddy', has an unexpected file extension. Was expecting 'idf'.\n[openstudio.model.YearDescription] <1> 'UseWeatherFile' is not yet a supported option for YearDescription\n[openstudio.model.YearDescription] <1> 'UseWeatherFile' is not yet a supported option for YearDescription\n[openstudio.EpwFile] <0> Successive data points (1973-Jan-31 to 1971-Feb-01, ending on line 753) are greater than 1 day apart in EPW file '/usr/local/bundle/bundler/gems/openstudio-standards-f448df66933d/openstudio-standards/data/weather/CAN_AB_Fort.McMurray.719320_CWEC.epw'. Data will be treated as typical (TMY)\n[openstudio.setFileExtension] <0> Path p, '/usr/local/bundle/bundler/gems/openstudio-standards-f448df66933d/openstudio-standards/data/weather/CAN_AB_Fort.McMurray.719320_CWEC.ddy', has an unexpected file extension. Was expecting 'idf'.\n[openstudio.model.YearDescription] <1> 'UseWeatherFile' is not yet a supported option for YearDescription\n[openstudio.model.YearDescription] <1> 'UseWeatherFile' is not yet a supported option for YearDescription\n[openstudio.setFileExtension] <0> Path p, '/usr/local/bundle/bundler/gems/openstudio-standards-f448df66933d/openstudio-standards/data/weather/CAN_AB_Fort.McMurray.719320_CWEC.ddy', has an unexpected file extension. Was expecting 'idf'.\n[openstudio.model.YearDescription] <1> 'UseWeatherFile' is not yet a supported option for YearDescription\n[openstudio.model.YearDescription] <1> 'UseWeatherFile' is not yet a supported option for YearDescription\n[openstudio.EpwFile] <0> Successive data points (1973-Jan-31 to 1971-Feb-01, ending on line 753) are greater than 1 day apart in EPW file '/usr/local/bundle/bundler/gems/openstudio-standards-f448df66933d/openstudio-standards/data/weather/CAN_AB_Fort.McMurray.719320_CWEC.epw'. Data will be treated as typical (TMY)\n[openstudio.setFileExtension] <0> Path p, '/usr/local/bundle/bundler/gems/openstudio-standards-f448df66933d/openstudio-standards/data/weather/CAN_AB_Fort.McMurray.719320_CWEC.ddy', has an unexpected file extension. Was expecting 'idf'.\n[openstudio.model.YearDescription] <1> 'UseWeatherFile' is not yet a supported option for YearDescription\n[openstudio.model.YearDescription] <1> 'UseWeatherFile' is not yet a supported option for YearDescription\n[openstudio.setFileExtension] <0> Path p, '/usr/local/bundle/bundler/gems/openstudio-standards-f448df66933d/openstudio-standards/data/weather/CAN_AB_Fort.McMurray.719320_CWEC.ddy', has an unexpected file extension. Was expecting 'idf'.\n[openstudio.model.YearDescription] <1> 'UseWeatherFile' is not yet a supported option for YearDescription\n[openstudio.model.YearDescription] <1> 'UseWeatherFile' is not yet a supported option for YearDescription\n[openstudio.standards.Fan] <0> For Fan Variable Volume 1, there is no greater nominal HP.  Use the efficiency of the largest motor category.\n[openstudio.standards.Fan] <0> For Fan Variable Volume 2, there is no greater nominal HP.  Use the efficiency of the largest motor category.\n[openstudio.standards.Fan] <0> For Fan Variable Volume 3, there is no greater nominal HP.  Use the efficiency of the largest motor category.\n[openstudio.standards.CoolingTower] <0> For Cooling Tower Single Speed 1, cannot find heat rejection properties, cannot apply standard efficiencies or curves.\n",
            "step_errors" : [],
            "step_files" : [],
            "step_info" : [
               "Started adding geometry",
               "Finished adding geometry",
               "Started adding weather file for climate zone: NECB HDD Method.",
               "Template =",
               "Setting FirstFloor_Plenum to Space Function.- undefined -",
               "Setting TopFloor_Plenum to Space Function.- undefined -",
               "Setting MidFloor_Plenum to Space Function.- undefined -",
               "Setting Core_bottom to Space Function.Office - open plan",
               "Setting Core_mid to Space Function.Office - open plan",
               "Setting Core_top to Space Function.Office - open plan",
               "Setting Perimeter_bot_ZN_1 to Space Function.Office - open plan",
               "Setting Perimeter_bot_ZN_2 to Space Function.Office - open plan",
               "Setting Perimeter_bot_ZN_3 to Space Function.Office - open plan",
               "Setting Perimeter_bot_ZN_4 to Space Function.Office - open plan",
               "Setting Perimeter_mid_ZN_1 to Space Function.Office - open plan",
               "Setting Perimeter_mid_ZN_2 to Space Function.Office - open plan",
               "Setting Perimeter_mid_ZN_3 to Space Function.Office - open plan",
               "Setting Perimeter_mid_ZN_4 to Space Function.Office - open plan",
               "Setting Perimeter_top_ZN_1 to Space Function.Office - open plan",
               "Setting Perimeter_top_ZN_2 to Space Function.Office - open plan",
               "Setting Perimeter_top_ZN_3 to Space Function.Office - open plan",
               "Setting Perimeter_top_ZN_4 to Space Function.Office - open plan",
               "Started applying space types (loads)",
               "Space Function - undefined - had no ventilation specification, one has been created.",
               "Space Function - undefined - had no infiltration objects, one has been created.",
               "Space Function - undefined - set infiltration to 0.0 per ft^2 exterior surface area.",
               "Space Function - undefined - set infiltration schedule to Always On.",
               "Space Function Office - open plan had no people, one has been created.",
               "Space Function Office - open plan set occupancy to 4.65 people/1000 ft^2.",
               "Space Function Office - open plan had no lights, one has been created.",
               "Space Function Office - open plan set LPD to 1.021924935 W/ft^2.",
               "Space Function Office - open plan had no electric equipment, one has been created.",
               "Space Function Office - open plan set electric EPD to 0.696767001 W/ft^2.",
               "Space Function Office - open plan had no ventilation specification, one has been created.",
               "Space Function Office - open plan set ventilation per area to 0.085 cfm/ft^2.",
               "Space Function Office - open plan had no infiltration objects, one has been created.",
               "Space Function Office - open plan set infiltration to 0.0 per ft^2 exterior surface area.",
               "Space Function Office - open plan set occupancy schedule to NECB-A-Occupancy.",
               "Space Function Office - open plan set occupant activity schedule to NECB-Activity.",
               "Space Function Office - open plan set lighting schedule to NECB-A-Lighting.",
               "Space Function Office - open plan set electric equipment schedule to NECB-A-Electric-Equipment.",
               "Space Function Office - open plan set infiltration schedule to Always On.",
               "Space Function Office - open plan set heating setpoint schedule to NECB-A-Thermostat Setpoint-Heating.",
               "Space Function Office - open plan set cooling setpoint schedule to NECB-A-Thermostat Setpoint-Cooling.",
               "Finished applying space types (loads)",
               "For NECB 2011, no exterior wall area was found, no infiltration will be added.",
               "For NECB 2011, no exterior wall area was found, no infiltration will be added.",
               "For NECB 2011, no exterior wall area was found, no infiltration will be added.",
               "Started applying constructions",
               "Adding construction set: NECB 2011-NECB HDD Method-Office--is_residentialNo",
               "Adding construction Typical Insulated Exterior Mass Floor R-15.63.",
               "Adding construction Typical Insulated Exterior Mass Wall R-12.5.",
               "Adding construction Typical Insulated Metal Building Roof R-20.41.",
               "Adding construction Typical Interior Floor.",
               "Adding construction Typical Interior Wall.",
               "Adding construction Typical Interior Ceiling.",
               "Adding construction Typical Insulated Carpeted 6in Slab Floor.",
               "Adding construction U 0.55 SHGC 0.31 Dbl Ref-D Tint 6mm/6mm Air.",
               "Adding construction Typical Insulated Metal Door R-1.43.",
               "Adding construction U 0.35 SHGC 0.35 Dbl LoE (e2-.1) Tint 6mm/13mm Air.",
               "Adding construction Typical Overhead Door R-2.0.",
               "Adding construction U 0.48 SHGC 0.40 Dbl Ref-D Clr 6mm/13mm.",
               "Adding construction Typical Interior Window.",
               "Adding construction Typical Interior Door.",
               "Adding construction Typical Interior Partition.",
               "Finished applying constructions",
               "WWR NonRes = 0%; window = 0 ft2, wall = 0 ft2.",
               "WWR Res = 0%; window = 0 ft2, wall = 0 ft2.",
               "WWR Semiheated = 0%; window = 0 ft2, wall = 0 ft2.",
               "Reducing the size of all windows (by raising sill height) to reduce window area down to the limit of 40%.",
               "The skylight to roof ratios (SRRs) are: NonRes: 0%, Res: 0%.",
               "Started creating thermal zones",
               "Finished creating thermal zones",
               "Running simulation /mnt/openstudio/analysis_4fef0e0f-5396-4c55-a6e1-2cd6803db3ab/data_point_ee2137b3-604b-4424-908f-448bc78d6b95/run/000_create_prototype_building/output/MediumOffice-NECB 2011-NECB HDD Method-CAN_AB_Fort.McMurray.719320_CWEC.epw/SR0.",
               "Finished run.",
               "Started Adding HVAC",
               "Finished adding HVAC",
               "Started Adding Service Water Heating",
               "Adding service water loop.",
               "Adding water heater.",
               "Template =",
               "Finished adding Service Water Heating",
               "Set sizing factors to 1.3 for heating and 1.3 for cooling.",
               "Running simulation /mnt/openstudio/analysis_4fef0e0f-5396-4c55-a6e1-2cd6803db3ab/data_point_ee2137b3-604b-4424-908f-448bc78d6b95/run/000_create_prototype_building/output/MediumOffice-NECB 2011-NECB HDD Method-CAN_AB_Fort.McMurray.719320_CWEC.epw/SR1.",
               "Finished run.",
               "Started applying multizone vav OA sizing.",
               "Finished applying multizone vav OA sizing.",
               "Started applying prototype HVAC assumptions.",
               "For Fan Variable Volume 1: allowed_hp = 15.41HP; motor eff = 84.61%; total fan eff = 55% based on 9887 cfm.",
               "For Fan Variable Volume 2: allowed_hp = 16.07HP; motor eff = 84.61%; total fan eff = 55% based on 10306 cfm.",
               "For Fan Variable Volume 3: allowed_hp = 16.8HP; motor eff = 84.61%; total fan eff = 55% based on 10775 cfm.",
               "VAV with Reheat 1 requires an economizer because the total cooling capacity of 264692 Btu/hr exceeds the minimum capacity of 68243 Btu/hr.",
               "VAV with Reheat requires an economizer because the total cooling capacity of 254424 Btu/hr exceeds the minimum capacity of 68243 Btu/hr.",
               "VAV with Reheat 2 requires an economizer because the total cooling capacity of 275951 Btu/hr exceeds the minimum capacity of 68243 Btu/hr.",
               "Finished applying prototype HVAC assumptions.",
               "Started applying HVAC efficiency standards.",
               "For VAV with Reheat, ERV not required based on 0% OA flow, design supply air flow of 9887cfm, and climate zone NECB HDD Method.",
               "For VAV with Reheat, ERV not required based on exhaust heat content.",
               "For VAV with Reheat: VAV damper action was set to Single Maximum control.",
               "For Fan Variable Volume 1: Set fan curve coefficients to reflect control type of 'Multi Zone VAV with AF or BI Riding Curve'.",
               "For NECB 2011 NECB HDD Method:  VAV with Reheat: DCV is not required for any system.",
               "For VAV with Reheat: Annual occupied hours = 2860 hr/yr, assuming a 0.15 occupancy threshold.  This schedule will be used as the HVAC operation schedule.",
               "For VAV with Reheat: Because the system has an economizer, it requires a motorized OA damper.",
               "For VAV with Reheat: Setting motorized OA damper schedule to VAV with Reheat Occ Sch.",
               "For VAV with Reheat 1, ERV not required based on 0% OA flow, design supply air flow of 10306cfm, and climate zone NECB HDD Method.",
               "For VAV with Reheat 1, ERV not required based on exhaust heat content.",
               "For VAV with Reheat 1: VAV damper action was set to Single Maximum control.",
               "For Fan Variable Volume 2: Set fan curve coefficients to reflect control type of 'Multi Zone VAV with AF or BI Riding Curve'.",
               "For NECB 2011 NECB HDD Method:  VAV with Reheat 1: DCV is not required for any system.",
               "For VAV with Reheat 1: Annual occupied hours = 2860 hr/yr, assuming a 0.15 occupancy threshold.  This schedule will be used as the HVAC operation schedule.",
               "For VAV with Reheat 1: Because the system has an economizer, it requires a motorized OA damper.",
               "For VAV with Reheat 1: Setting motorized OA damper schedule to VAV with Reheat 1 Occ Sch.",
               "For VAV with Reheat 2, ERV not required based on 0% OA flow, design supply air flow of 10775cfm, and climate zone NECB HDD Method.",
               "For VAV with Reheat 2, ERV not required based on exhaust heat content.",
               "For VAV with Reheat 2: VAV damper action was set to Single Maximum control.",
               "For Fan Variable Volume 3: Set fan curve coefficients to reflect control type of 'Multi Zone VAV with AF or BI Riding Curve'.",
               "For NECB 2011 NECB HDD Method:  VAV with Reheat 2: DCV is not required for any system.",
               "For VAV with Reheat 2: Annual occupied hours = 2860 hr/yr, assuming a 0.15 occupancy threshold.  This schedule will be used as the HVAC operation schedule.",
               "For VAV with Reheat 2: Because the system has an economizer, it requires a motorized OA damper.",
               "For VAV with Reheat 2: Setting motorized OA damper schedule to VAV with Reheat 2 Occ Sch.",
               "For Fan Variable Volume 1: motor nameplate = 14HP, motor eff = 84.61%.",
               "For Fan Variable Volume 2: motor nameplate = 15HP, motor eff = 84.61%.",
               "For Fan Variable Volume 3: motor nameplate = 15HP, motor eff = 84.61%.",
               "For Pump Constant Speed 1: brake hp = 2.85HP, motor nameplate = 3.0HP, motor eff = 89.5%.",
               "For Pump Constant Speed 2: brake hp = 6.77HP, motor nameplate = 8.0HP, motor eff = 91.7%.",
               "For Service Water Loop Pump: brake hp = 0.01HP, motor nameplate = 0.1HP, motor eff = 70.0%.",
               "For Pump Variable Speed 1: brake hp = 1.95HP, motor nameplate = 2.0HP, motor eff = 86.5%.",
               "For NECB 2011: Primary Chiller WaterCooled Scroll 66tons 0.8kW/ton: WaterCooled  Scroll Capacity = 66tons; COP = 4.5 (0.8kW/ton)",
               "For NECB 2011: Secondary Chiller WaterCooled Scroll 0tons 0.8kW/ton: WaterCooled  Scroll Capacity = 0tons; COP = 4.5 (0.8kW/ton)",
               "For NECB 2011: Primary Boiler: Gas Hot Water Capacity = 1448kBtu/hr; Thermal Efficiency = 0.83",
               "For NECB 2011: Secondary Boiler: Gas Hot Water Capacity = 0kBtu/hr; AFUE = 0.85",
               "For NECB 2011: 100.0gal NaturalGas Water Heater - 100kBtu/hr 0.81 Therm Eff; thermal efficiency = 0.81, skin-loss UA = 14Btu/hr",
               "Finished applying HVAC efficiency standards.",
               "Started adding daylighting controls.",
               "For Core_bottom, daylighting control not applicable because no exterior fenestration is present.",
               "For Core_mid, daylighting control not applicable because no exterior fenestration is present.",
               "For Core_top, daylighting control not applicable because no exterior fenestration is present.",
               "For FirstFloor_Plenum, daylighting control not applicable because no exterior fenestration is present.",
               "For MidFloor_Plenum, daylighting control not applicable because no exterior fenestration is present.",
               "For TopFloor_Plenum, daylighting control not applicable because no exterior fenestration is present.",
               "Finished adding daylighting controls.",
               "Total Time = 63sec."
            ],
            "step_result" : "Success",
            "step_values" : [
               {
                  "name" : "building_type",
                  "value" : "MediumOffice"
               },
               {
                  "name" : "template",
                  "value" : "NECB 2011"
               },
               {
                  "name" : "climate_zone",
                  "value" : "NECB HDD Method"
               },
               {
                  "name" : "epw_file",
                  "value" : "CAN_AB_Fort.McMurray.719320_CWEC.epw"
               }
            ],
            "step_warnings" : [
               "[openstudio.EpwFile] Successive data points (1973-Jan-31 to 1971-Feb-01, ending on line 753) are greater than 1 day apart in EPW file '/usr/local/bundle/bundler/gems/openstudio-standards-f448df66933d/openstudio-standards/data/weather/CAN_AB_Fort.McMurray.719320_CWEC.epw'. Data will be treated as typical (TMY)",
               "[openstudio.EpwFile] Successive data points (1973-Jan-31 to 1971-Feb-01, ending on line 753) are greater than 1 day apart in EPW file '/usr/local/bundle/bundler/gems/openstudio-standards-f448df66933d/openstudio-standards/data/weather/CAN_AB_Fort.McMurray.719320_CWEC.epw'. Data will be treated as typical (TMY)",
               "[openstudio.weather.Model] Could not find ground temperatures; will use generic temperatures, which will skew results.",
               "[openstudio.EpwFile] Successive data points (1973-Jan-31 to 1971-Feb-01, ending on line 753) are greater than 1 day apart in EPW file '/usr/local/bundle/bundler/gems/openstudio-standards-f448df66933d/openstudio-standards/data/weather/CAN_AB_Fort.McMurray.719320_CWEC.epw'. Data will be treated as typical (TMY)",
               "[openstudio.EpwFile] Successive data points (1973-Jan-31 to 1971-Feb-01, ending on line 753) are greater than 1 day apart in EPW file '/usr/local/bundle/bundler/gems/openstudio-standards-f448df66933d/openstudio-standards/data/weather/CAN_AB_Fort.McMurray.719320_CWEC.epw'. Data will be treated as typical (TMY)",
               "[openstudio.standards.Fan] For Fan Variable Volume 1, there is no greater nominal HP.  Use the efficiency of the largest motor category.",
               "[openstudio.standards.Fan] For Fan Variable Volume 2, there is no greater nominal HP.  Use the efficiency of the largest motor category.",
               "[openstudio.standards.Fan] For Fan Variable Volume 3, there is no greater nominal HP.  Use the efficiency of the largest motor category.",
               "[openstudio.EpwFile] Successive data points (1973-Jan-31 to 1971-Feb-01, ending on line 753) are greater than 1 day apart in EPW file '/usr/local/bundle/bundler/gems/openstudio-standards-f448df66933d/openstudio-standards/data/weather/CAN_AB_Fort.McMurray.719320_CWEC.epw'. Data will be treated as typical (TMY)",
               "[openstudio.EpwFile] Successive data points (1973-Jan-31 to 1971-Feb-01, ending on line 753) are greater than 1 day apart in EPW file '/usr/local/bundle/bundler/gems/openstudio-standards-f448df66933d/openstudio-standards/data/weather/CAN_AB_Fort.McMurray.719320_CWEC.epw'. Data will be treated as typical (TMY)",
               "[openstudio.EpwFile] Successive data points (1973-Jan-31 to 1971-Feb-01, ending on line 753) are greater than 1 day apart in EPW file '/usr/local/bundle/bundler/gems/openstudio-standards-f448df66933d/openstudio-standards/data/weather/CAN_AB_Fort.McMurray.719320_CWEC.epw'. Data will be treated as typical (TMY)",
               "[openstudio.standards.Fan] For Fan Variable Volume 1, there is no greater nominal HP.  Use the efficiency of the largest motor category.",
               "[openstudio.standards.Fan] For Fan Variable Volume 2, there is no greater nominal HP.  Use the efficiency of the largest motor category.",
               "[openstudio.standards.Fan] For Fan Variable Volume 3, there is no greater nominal HP.  Use the efficiency of the largest motor category.",
               "[openstudio.standards.CoolingTower] For Cooling Tower Single Speed 1, cannot find heat rejection properties, cannot apply standard efficiencies or curves."
            ]
         }
      },
      {
         "arguments" : {
            "__SKIP__" : false
         },
         "measure_dir_name" : "view_model",
         "name" : "view_model",
         "result" : {
            "completed_at" : "20170710T182952Z",
            "measure_class_name" : "ViewModel",
            "measure_display_name" : "ViewModel",
            "measure_name" : "view_model",
            "measure_taxonomy" : "Reporting.QAQC",
            "measure_type" : "ModelMeasure",
            "measure_uid" : "f4669f10-fda5-489d-8e1c-7ca3c2d40378",
            "measure_version_id" : "f4975c5f-7c25-42a2-927b-02d99b4427ef",
            "measure_version_modified" : "20170526T150340Z",
            "measure_xml_checksum" : "1E1F8B97",
            "started_at" : "20170710T182952Z",
            "stderr" : "",
            "stdout" : "[OpenStudio.Measure] <0> OSArgumentVector is deprecated, use OpenStudio::Measure::OSArgumentVector instead.\n",
            "step_errors" : [],
            "step_files" : [
               "/mnt/openstudio/analysis_4fef0e0f-5396-4c55-a6e1-2cd6803db3ab/data_point_ee2137b3-604b-4424-908f-448bc78d6b95/run/001_view_model/report.html",
               "/mnt/openstudio/analysis_4fef0e0f-5396-4c55-a6e1-2cd6803db3ab/data_point_ee2137b3-604b-4424-908f-448bc78d6b95/run/001_view_model/report.json"
            ],
            "step_final_condition" : "Report written to <a href='file:////mnt/openstudio/analysis_4fef0e0f-5396-4c55-a6e1-2cd6803db3ab/data_point_ee2137b3-604b-4424-908f-448bc78d6b95/run/001_view_model/report.html'>report.html</a>.",
            "step_info" : [ "No changes made to the model." ],
            "step_result" : "NA",
            "step_values" : [
               {
                  "name" : "view_model_html_zip",
[...]
0d2dI8erTVHJcfzRFk3yKXIc0RZE9+lyPNEWRPfpclzRFkT36fJ82TJOvtyM7mU6V5kmTtHdncfLY0T5KswyP7m0+Y5lkrZT0e2eJ8zjRPkqzHI7sc2jS0aWjT7hGiTcsH2jS0aWjTIgNtGtq0Uu8Kbdpa/RKvR5u2OtCmLUcN39LaMbsAOOCAAw444IADDjjggANO43F2TDoADTTQQAMNNNBAAw000EDTHJoHIzsABxxwwAEHHHDAAQcccMCpXg9t2mKgTVtq09rN0KadNkCbdro1bVp3/lBoVcWNKqitCjpSBXVUQV1V0LEq6EQVdKoKWnv63pck6+0ga+4g6+4ga+8g6+8ga/Ag6/Aga/Eg6/FU1uOpbv2W9Xgq6/G0XI8X16atZ1XXpnly7LtUXZvmybFXgeraNE+OvQJU16Z5cuzZ79CmuYJUHR3Z3hzaNFeQqqkje5tDm+YKUvV1ZGNzaNNcK6OqsyO7mkOb5gpSdXZkS6uuTVvPcWjTXEH2LXJo01xB9uR3aNNcQfbkd2jTXEH25Pdo03xJst6O7GwebZovSdbekc3No03zJck6PLK/ebRpvrVS1uORLc6jTfMlyXo8ssuhTUObhjbtHiHatHygTUObhjYtMtCmoU0r9a7Qpq3VL/F6tGmrA23actTwLa0dswuAAw444IADDjjggAMOOOA0HmfHpAPQQAMNNNBAAw000EADDTTNoXkwsgNwwAEHHHDAAQcccMABB5zq9dCmLQbatKU27agR2rTu4e5r02aM29KmHbZSiTXNk9MW5RyJcjqinK4o51iUcyLKORXlrD107wpSdXRQtXRQ9XRQNXVQdXVQtXVQ9XVQNXZQdXaq6uxUtlarOjtVdXZaqrOL69HWoqrb0Rwx5h2q7kZzxJjzvroZzRFjzvnqXjRHjDnfHVY0T46oj+1tzKFE8+SIWtnewxw+NE+OqJvtDcwhQ/Osg6J+tncvhwnNkyPqZ3vrqq5BW4txWNA8OebtcTjQPDnmdHcY0Dw55nR3+M88OeZ099jPXEGqjrZ3MI/6zBWkamp7E/N4z1xBqr629zGP9My1Mqo6297KPMYzV5Cqs+3dDN0ZujN0Z/cI0Z3lA90ZujN0Z5GB7gzdWal3he5srX6J16M7Wx3ozpajhm9X7ZgVABxwwAEHHHDAAQcccMABp/E4OyYLgAYaaKCBBhpooIEGGmigaQ7Ng5EUgAMOOOCAAw444IADDjjgVK+H7mwx0J0tdWedZujOQgN0Z2GLurPDjsh35ghqq4KOVEEdVVBXFXSsCjpRBZ2qgj553N6TJOvtIGvuIOvuIGvvIOvvIGvwIOvwIGvxIOvxVNbjqW79lvV4KuvxtFyPl9GgrWZ5PGjVc+y75DGhVc+xVwGPC616jr0CeGxo1XPs2e/yoTmCVB0d2d5cSjRHkKqpI3uby4rmCFL1dWRjc4nRHCujqrMju5rLjeYIUnV2ZEvz6NFWc1x+NEeQfYtchjRHkD35XY40R5A9+V2WNEeQPfl9njRPkqy3IzubT5XmSZK1d2Rz89nSPEmyDo/sbz5hmmetlPV4ZIvzOdM8SbIej+xyaNPQpqFNu0eINi0faNPQpqFNiwy0aWjTSr0rtGlr9Uu8Hm3a6kCbthw1fEtrx+wC4IADDjjggAMOOOCAAw44jcfZMekANNBAAw000EADDTTQQANNc2gejOwAHHDAAQcccMABBxxwwAGnej20aYuBNm2pTes2Q5uWNkCblm5Nm9adPxRaVXGjCmqrgo5UQR1VUFcVdKwKOlEFnaqC1p6+9yXJejvImjvIujvI2jvI+jvIGjzIOjzIWjzIejyV9XiqW79lPZ7Kejwt1+PFtWnrWdW1aZ4c+y5V16Z5cuxVoLo2zZNjrwDVtWmeHHv2O7RpriBVR0e2N4c2zRWkaurI3ubQprmCVH0d2dgc2jTXyqjq7Miu5tCmuYJUnR3Z0qpr09ZzHNo0V5B9ixzaNFeQPfkd2jRXkD35Hdo0V5A9+T3aNF+SrLcjO5tHm+ZLkrV3ZHPzaNN8SbIOj+xvHm2ab62U9Xhki/No03xJsh6P7HJo09CmoU27R4g2LR9o09CmoU2LDLRpaNNKvSu0aWv1S7webdrqQJu2HDV8S2vH7ALggAMOOOCAAw444IADDjiNx9kx6QA00EADDTTQQAMNNNBAA01zaB6M7AAccMABBxxwwAEHHHDAAad6PbRpi4E2balNO26GNq3dAG1aG21atSC0aZuD0KYVSkKbhjYNbRraNLRpaNPQpqFNQ5v22ZURbdrmILRpG4PQpqFNQ5uGNk2WhDatWBLaNBsGbRratE8H2rQ7fLRpnw60aUUG2rRyr0ebhjat1LtCm7ZWv8Tr0aatDrRpy1HDt7R2zC4ADjjggAMOOOCAAw444IDTeJwdkw5AAw000EADDTTQQAMNNNA0h+bByA7AAQcccMABBxxwwAEHHHCq10Obthho0+60aZ1mWNOOGmBNO9qaNe2wlUqkaZ6ctijnSJTTEeV0RTnHopwTUc6pKGftmXtXkKqjg6qlg6qng6qpg6qrg6qtg6qvg6qxg6qzU1Vnp7K1WtXZqaqz01KdXdyOthZVXY7miDHvUHU1miPGnPfVxWiOGHPOV9eiOWLM+e6QonlyRH1sb2MOI5onR9TK9h7m0KF5ckTdbG9gDheaZx0U9bO9ezlEaJ4cUT/bW1d1C9pajEOC5skxb49DgebJMae7Q4DmyTGnu0N/5skxp7tHfuYKUnW0vYN5zGeuIFVT25uYR3vmClL1tb2PeZxnrpVR1dn2VuYRnrmCVJ1t72bYzrCdYTu7R4jtLB/YzrCdYTuLDGxn2M5KvStsZ2v1S7we29nqwHa2HDV8uWrHpADggAMOOOCAAw444IADDjiNx9kxVwA00EADDTTQQAMNNNBAA01zaB6MowAccMABBxxwwAEHHHDAAad6PWxni4Ht7M521m2G7azTANtZZ4u2s8OOSHfmCGqrgo5UQR1VUFcVdKwKOlEFnaqCPnna3pMk6+0ga+4g6+4ga+8g6+8ga/Ag6/Aga/Eg6/FU1uOpbv2W9Xgq6/G0XI+XsaCtZnk0aNVz7LvkEaFVz7FXAY8KrXqOvQJ4ZGjVc+zZ79KhOYJUHR3Z3lxGNEeQqqkje5tLiuYIUvV1ZGNzedEcK6OqsyO7mkuN5ghSdXZkS/PY0VZzXHo0R5B9i1yCNEeQPfldijRHkD35XZI0R5A9+X2aNE+SrLcjO5vPlOZJkrV3ZHPzydI8SbIOj+xvPl+aZ62U9Xhki/Mp0zxJsh6P7HJY07CmYU27R4g1LR9Y07CmYU2LDKxpWNNKvSusaWv1S7wea9rqwJq2HDV8SWvH5ALggAMOOOCAAw444IADDjiNx9kx5wA00EADDTTQQAMNNNBAA01zaB6M6wAccMABBxxwwAEHHHDAAad6Paxpi4E17c6adtwMa1q3Ada07tasad35M6FVDTeqoLYq6EgV1FEFdVVBx6qgE1XQqSpo7eF7X5Kst4OsuYOsu4OsvYOsv4OswYOsw4OsxYOsx1NZj6e69VvW46msx9NyPV7cmraeVd2a5smx71J1a5onx14FqlvTPDn2ClDdmubJsWe/w5rmClJ1dGR7c1jTXEGqpo7sbQ5rmitI1deRjc1hTXOtjKrOjuxqDmuaK0jV2ZEtrbo1bT3HYU1zBdm3yGFNcwXZk99hTXMF2ZPfYU1zBdmT32NN8yXJejuys3msab4kWXtHNjePNc2XJOvwyP7msab51kpZj0e2OI81zZck6/HILoc1DWsa1rR7hFjT8oE1DWsa1rTIwJqGNa3Uu8Katla/xOuxpq0OrGnLUcOXtHZMLgAOOOCAAw444IADDjjggNN4nB1zDkADDTTQQAMNNNBAAw000DSH5sG4DsABBxxwwAEHHHDAAQcccKrXw5q2GFjT7qxpJ82wph03wJp2vDVr2mErlUjTPDltUc6RKKcjyumKco5FOSeinFNRztoz964gVUcHVUsHVU8HVVMHVVcHVVsHVV8HVWMHVWenqs5OZWu1qrNTVWenpTq7uB1tLaq6HM0RY96h6mo0R4w576uL0Rwx5pyvrkVzxJjz3SFF8+SI+tjexhxGNE+OqJXtPcyhQ/PkiLrZ3sAcLjTPOijqZ3v3cojQPDmifra3ruoWtLUYhwTNk2PeHocCzZNjTneHAM2TY053h/7Mk2NOd4/8zBWk6mh7B/OYz1xBqqa2NzGP9swVpOprex/zOM9cK6Oqs+2tzCM8cwWpOtvezbCdYTvDdnaPENtZPrCdYTvDdhYZ2M6wnZV6V9jO1uqXeD22s9WB7Ww5avhy1Y5JAcABBxxwwAEHHHDAAQcccBqPs2OuAGiggQYaaKCBBhpooIEGmubQPBhHATjggAMOOOCAAw444IADTvV62M4WA9vZne3stBm2s5MG2M5OtmY7C0eHrcOVEY4k8jNhbLue2KN6Yjv1xHbriT2uJ/akntjTemLXnvVX5tY0z0JNEy3UNNNCTVMt1DTXQk2TLdQ020JN0y3UNN/SmuZbWte+VtN8S2uab6lnvhW3ysWSq0vmdKlF7251BZ0utehKVl1Qp0stuopV19fpUouuYA65nTC2ntlV+LjgMOEJY+uZYIXPCg5tnjC2njlW+KDgcOwJd4V6ZlnhU4JDyCeMrWeWFT4iVLf3xVIdMj9hbNFb61D9CWOLLmAOEaAwtugC5tAECmOLLmAeiaAyt6Z5Vvik4DEOKnNrmmqFDwsePaEyt6bZVvi84HEZKveJmuZb4SODR3yozK1pvhU+NWBJxJKIJfEeIZbEfGBJxJKIJTEysCRiSSz1rrAkrtUv8XosiasDS+Jy1PClzB2TiYADDjjggAMOOOCAAw444DQeZ8ccI9BAAw000EADDTTQQAMNNM2heTBuE3DAAQcccMABBxxwwAEHnOr1fgNL4o/Zu6ts3Jtej7Nk/5tHSBN3S5qYjd8PzrLkn728874dja6S/APLv+d8dPhNMwSKpw0QKJ5uTaDY6bTapyuj3ZEIFIWx7Xpij+qJ7dQT260n9rie2JN6Yk/riV3zHChza5pnoaaJFmqaaaGmqRZqmmuhpskWapptoabpFmqab2lN8y2ta1+rab6lNc231DPfigsUY8nVBYq61KJ3t7pAUZdadCWrLlDUpRZdxaoLFHWpRVcwh0BRGFvP7Cp8XHAIFIWx9UywwmcFh0BRGFvPHCt8UHAIFIW7Qj2zrPApwSFQFMbWM8sKHxGqCxRjqQ6BojC26K11CBSFsUUXMIdAURhbdAFzCBSFsUUXMI9AUZlb0zwrfFLwCBSVuTVNtcKHBY9AUZlb02wrfF7wCBSV+0RN863wkcEjUFTm1jTfCp8aECgiUESgeI8QgWI+ECgiUESgGBkIFBEolnpXCBTX6pd4PQLF1YFAcTlq+L7mjnlGwAEHHHDAAQcccMABBxxwGo+zY/oRaKCBBhpooIEGGmiggQaa5tA8GO0JOOCAAw444IADDjjggANO9XoIFD8/Hq5A8frqaniTPBuM5+LERhgTjw9335g4Y8SYWFZsgDGxfCzGRIyJ5cUGGBOr5WJMxJiIMRFjIsZEjImfi8WYiDERY2LpYwLGxPKxGBMxJmJMLHtMwJhYLRdjIsZEjIkYEz/zHy4wJn6GA2MixsQEY2IxLIyJGBOrDIyJ+cCYiDFxPjAmxl+JMXFzQD4wJjZDLAIOOOCAAw444IADDjjggNN4nB3zjUADDTTQQAMNNNBAAw000DSH5sF4TsABBxxwwAEHHHDAAQcccKrXw5j4+YEx8daYmIRmOBNDA5yJAWdiabUBzsTysTgTcSaWVxvgTKyWizMRZyLORJyJOBNxJn4uFmcizkSciaWPCTgTy8fiTMSZiDOx7DEBZ2K1XJyJOBNxJuJM/Mx/uMCZ+BkOnIk4ExOcicWwcCbiTKwycCbmA2cizsT5wJkYfyXOxM0B+cCZ2Ay1CDjggAMOOOCAAw444IADTuNxdsw4Ag000EADDTTQQAMNNNBA0xyaB2M6AQcccMABBxxwwAEHHHDAqV4PZ+LnB87EhTMxbYYzMW2AMzHdmjNx/u9V5UyinLYo50iU0xHldEU5x6KcE1HOqShnzSngClJ1dFC1dFD1dFA1dVB1dVC1dVD1dVA1dlB1dqrq7FS2Vqs6O1V1dlqqs4u7/Naiqsv7HDHmHaqu53PEmPO+uoDPEWPO+eqKPUeMOd8dEj1PjqiP7W3M4cXz5Iha2d7DHKo7T46om+0NzGGv86yDon62dy+HkM6TI+pne+uq7phbi3FI5Tw55u1xaOM8OeZ0d4jhPDnmdHeo3zw55nT3yN1cQaqOtncwj6/NFaRqansT8yjYXEGqvrb3MY9VzbUyqjrb3so8ojRXkKqz7d3sXtDfxoPReDC9SULyONl/eX35KLdQdR//v97l48PweP7vX2dnj9vB2uYO1/6H3rNnR0enp4ISaf0l2vWXOKq/RKf+Et36SxzXX+Kk/hKn9ZdY29nrqrGF+R22MMHDFmZ42MIUD1uY42ELkzxsYZaHLUzzsIV5nm5hnqfb2Me3MM/TLczztNo8T+c1elOrxmGxY1W7naYnXUEJ+9OQlbA/DFkJ+7OQlbCXXFkJe8WVlbAXXFkJe72VlbCXW1mJyLFKV2ML8ztyrNLV2MIMjxyrdDW2MMcjxypdjS3M8sixSldjC/M8cqzS1djGPr6FeR45VulqVJvn7bzGN+OBUSM9LXasCuH4uN0WlLA/DVkJ+8OQlbA/C1kJe8mVlbBXXFkJe8GVlbDXW1kJ+7tRshKRLwTqatjfqNLVsL9spathfw9LV8P+ipauhv29RF0N+yuLuhr2txl1NewvOupqbGGeR45Vuhrb2Me3sJFHjlW6GtW28qO8xo8X11aNk2LHqvwvLnX+KChhfxqyEvaHISthfxayEvaxSlbCPlbJStjHKlkJ+1glK2Evt7ISkWOVroZ9rNLVsI9Vuhr2sUpXwz5W6WrYxypdDftYpathH6t0Nexjla7GFuZ55Filq7GNfXwLG3nkWKWrUW0r7+Q1/pn1rRrHxY5VX3/9/PnxsaCE/WnIStgfhqyE/VnIStjHKlkJ+1glK2Efq2Ql7GOVrIS93MpKRI5Vuhr2sUpXwz5W6WrYxypdDftYpathH6t0Nexjla6GfazS1bCPVboaW5jnkWOVrsY29vEtbOSRY5WuRrWtvDs/ul1nVo1usWPV8+fdrqSE/WnIStgfhqyE/VnIStjHKlkJ+1glK2Efq2Ql7GOVrIS93MpKRI5Vuhr2sUpXwz5W6WrYxypdDftYpathH6t0Nexjla6GfazS1bCPVboaW5jnkWOVrsY29vEtbOSRY5WuRrWt/Div8d3I+lp82il2rDo5SdNOR1DC/jRkJewPQ1bC/ixkJexjlayEfaySlbCPVbIS9rFKViLmnRKViMrWVDVitipVjZjISlUj5rhS1Yjpr1Q1Ys43VY2YDk5VI2aKU9WISeRUNbYwzyPHKl2NbezjW9jII8cqXY3NW/nPRQyvCw1z8jS5zD7cCWTn3tj9yfvzg7kBdqMq9s7lPMmmfxxdX/Yn+53DgySEzkHSzv8t7RTTzX6cYSw91P3+8940Ox+Nb559HExuTcjL919AGD0L+H7cz8Y/XOdi4sK/mHPcrHN8l/Um1+PsFiN3Ky/ue81Gbi5zmctc5jKXucxlLnOZy1zmMpe5zGUuc5nLXOYyl7nMZS5zmctc5jKXucxlLnOZy1zmMpe5zGUuc5nLXOYyl7nMZS5zmctc5jKXucxlLv9HXb5pjd5n4/Ggn33Xyx+sDa1D5/Oq+aOxk/VHY19m40E2WTxeu3dw9wDx1XA0bQ0Hl9nGR2Qnn3tOd/OTtZPW/E/PX42GvelgdDmD2ptMs6vHr7M3o3G2V+zJ52+z8+yyv/6Gbn+23z08SNr5k8uH+YPM+T/2htmbaQ62IfoutvXqPJu+uJzm92dW4s315dmcdP9R8q8NEXeE2fK3f9r4LHc+Bm+S/enFYNKazD+VYoXysfJLrdn9e9E7u9j/N3DZtDv8/NHxGfsi99XVaDLIA7+e/bjIu7kbecxnqMajD+WQ7rAGl/0snw+Pw0HJ374bb6v+4ptBNsz7bX9xT2/nyfl4dH2V9ZPf/z75r8XPP7ZeXfQmi+ff8wn2aPXqzWevzm5Iq3d+/k1eozXMLs+nF8lXSZr8b7L3bDjcS75cf8VkODjL9h+HRz8d/vxo43y7905G42T/7eytHP4heTsrs2jVRd38Z/89W3HKf0D5yNt4kffT259bv2Q3ydOnT29vXrXEeeriY39b9q3ejdfjrPdLlV/+teTvlH19fr8W7+5p3tZ5Myw6ZS5yaL3qTSaD88us/zxXREx+mt/Jn6vdyrsP+up6crFf9bOYfaRf3n6e1WfScPhlkXfZyl9ZtcpkOh79khWrc/vaqpVGV72zwfSmWKnFiyu/q3mJu1JVU+4WkvVlpcr0KL345ONuOq8vPMnjJJRNKzPdirP+ejDfVQu9/tdNZ4p8PHmS/O3vPyb/9/3ff0hefv/Dj3/565+Sb7//01+eJ39+8cOLYgHfzFbt7GMvP6Il01EyGY2nyeX1u1kfnCVzpckk6U3OZoeXweV5gcS7e5/nrOzMvYPkdfHFZZxNr8eXyVVvPMm+GY560/1evuQ/mn2UKz97Pf9ZoZu5+Yi2UnbxFjYF/1qv6WV5/pxP9/lk3/+in73pXQ+nydV4NFvDsi8Oki9+d3Ly/PmLF1/ULJ4BBxxwwAEHHHDAAQcccMD5z8RJJtfvZv8TOOln+Q+Tfu8mJxpnfWiggQYaaKCBBhpooIEGGmjiNB/mX836hOb18DoDBxxwwAEHHHDAAQcccMABpwrO8u8GhvzvBr68tv5uYDvM/wvbs2dHR6enkEIKKaSQQgoppJBCCimkkEIKaTNI0zlpb2qRHs5J2+00PelCCimkkEIKKaSQQgoppJBCCimkzSBt56TfjAcGaXo6Jw3h+LjdhhRSSCGFFFJIIYUUUkghhRRSSJtBepST/nhxbZGezElPZ6PzR0ghhRRSSCGFFFJIIYUUUkghhbQZpJ2c9J9Z3yI9npN+/fXz58fHkEIKKaSQQgoppJBCCimkkEIKaTNIu/P/Z+I6s0i7c9Lnz7tdSCGFFFJIIYUUUkghhRRSSCGFtCmkxznpdyPLLJh25qQnJ2na6UAKKaSQQgoppJBCCimkkEIKKaRbI71D6Y97H/Y3hn1sTQfTYfbyoneVtabZx+n+F38eXY8nmzFu7v/m14N32eVkMLocZpN5woaIJ0+SZ/1+0kvmScmHwfQimYzeZUm/veE3J+/PW72rq+yyv7+X1957tOEX7karN52O9/c+7h0k3cOSv3Qz+6W0+C9NpjfD7Bbvce/y7GI0nv3+3jB7U4J2kfFmdDl9/CEbnF9M84zXo2G/eMbtZ/OPZ/+4vcE/ZBdZb5qE5Puzs+Tl2cUXj2If01dPJmfjwdX0f8zXfPWkP3j/+cvm79hhs6xk0H+6d5b38PPZ2+4NLrPxq+P2XjK/F0/3+oPJ1bB38+Xgcji79Pj1cHT2yx/2bL5Z6O1bSKY3V7Pfz2/Hk7e9973bn0Z/Mx/ve+O83ZKnSX/w7mqYtS6zDy/fn+/v/e4+40FydHg4/8fG6ZPH9nvT3iz3p3/tDXuvs+Hel3v97E3vejhNrsajN4Nhtndwe+XVx70vQ+vwYO99b3idLf79LF9lZr8zWzieP3/xYu/Xg0I5qSinLco5EuV0RDldUc6xKOdElHMqygmHqiBVRwdVSwdVTwdVUwdVVwdVWwdVXwdVYwdVZ6eqzk5la7Wqs1NVZ6elOjuZXL97t/ZnpwvtaOOsXyLGvEflYsw7VC7GvD/lYsx5Xy7GnPXlYsw5Xy7GnPHlYsz5Xi7G3shK5oj62N7GSuaIOtnexErmiHrZ3sJK5oi62d7ASuaI+tnevkrmqNZlUT/be1fJnOL9/GFwOS2/bb3Of1Q8x7w9JXPM21Myx7w9JXPM6V4yx5zuJXPM6V4yx5zuJXPM6V4yx96/ygapOtrewcoGqXra3sPKBqm62t7Fygap+trex8oGqTrb3snKBsnWalVn25tZ2aDinb387xAb/06wtc0drv0Pvds/JCwokdZfol1/iaP6S3TqL9Gtv8Rx/SVO6i9xWn+JtZ29rhpbmN9hCxM8bGGGhy1M8bCFOR62MMnDFmZ52MI0D1uY5+kW5nm6jX18C/M83cI8T6vN841/jrHYser27zUKStifhqyE/WHIStifhayEveTKStgrrqyEveDKStjrrayEvdzKSkSOVboaW5jfkWOVrsYWZnjkWKWrsYU5HjlW6WpsYZZHjlW6GluY55Fjla7GNvbxLczzyLFKV6PaPN/4V6+KHatu/yyWoIT9achK2B+GrIT9WchK2EuurIS94spK2AuurIS93spK2N+NkpWIfCFQV8P+RpWuhv1lK10N+3tYuhr2V7R0NezvJepq2F9Z1NWwv82oq2F/0VFXYwvzPHKs0tXYxj6+hY08cqzS1ai2lW/84yLFjlW3f31EUML+NGQl7A9DVsL+LGQl7GOVrIR9rJKVsI9VshL2sUpWwl5uZSUixypdDftYpathH6t0Nexjla6GfazS1bCPVboa9rFKV8M+Vulq2McqXY0tzPPIsUpXYxv7+BY28sixSlej2la+0eFe7Fh1K3kXlLA/DVkJ+8OQlbA/C1kJ+1glK2Efq2Ql7GOVrIR9rJKVsJdbWYnIsUpXwz5W6WrYxypdDftYpathH6t0Nexjla6GfazS1bCPVboa9rFKV2ML8zxyrNLV2MY+voWNPHKs0tWotpVvVOUWO1bdunQFJexPQ1bC/jBkJezPQlbCPlbJStjHKlkJ+1glK2Efq2Ql7OVWViJyrNLVsI9Vuhr2sUpXwz5W6WrYxypdDftYpathH6t0Nexjla6GfazS1djCPI8cq3Q1trGPb2EjjxyrdDWqbeUbjYTFjlW3ykJBCfvTkJWwPwxZCfuzkJWwj1WyEvaxSlbCPlbJStjHKlmJmHdKVCIqW1PViNmqVDViIitVjZjjSlUjpr9S1Yg531Q1Yjo4VY2YKU5VIyaRU9XYwjyPHKt0Nbaxj29hI48cq3Q1Nm/lPxcxvC5kzMnT5DL7cCeQnXtj9yfvzw/mBtiNqtg7o/Mkm/5xdH3Zn+x3Dg+SEDoHSTv/t7RTTDf7cYaxFFX3+8970+x8NL559nEwuTUiL99/AW30LOD7cT8b/3CdC4oL/2LOcbPO8V3Wm1yPs1uM3LG8uO81K7u5zGUuc5nLXOYyl7nMZS5zmctc5jKXucxlLnOZy1zmMpe5zGUuc5nLXOYyl7nMZS5zmctc5jKXucxlLnOZy1zmMpe5zGUuc5nLXOYyl7n8H3X5pjV6n43Hg372XS9/sDa0Dp3Pq+aPxk7WH419mY0H2WTxeO3ewd0DxFfD0bQ1HFxmGx+RnXzuOd3NT9ZOWvM/PX81Gvamg9HlDGpvMs2uHr/O3ozG2V6xJ5+/zc6zy/76G7r92X738CBp508uH+YPMuf/2Btmb6Y52Ibou9jWq/Ns+uJymt+fWYk315dnc9L9R8m/NkTcEWbL3/5p47Pc+Ri8SfanF4NJazL/VIoVysfKL7Vm9+9F7+xi/9/AZdPu8PNHx2fsi9xXV6PJIA/8evbjIu/mbuQxn6Eajz6UQ7rDGlz2s3w+PA4HJX/7bryt+otvBtkw77f9xT29nSfn49H1VdZPfv/75L8WP//YenXRmyyef88n2KPVqzefvTq7Ia3e+fk3eY3WMLs8n14kXyVp8r/J3rPhcC/5cv0Vk+HgLNt/HB79dPjzo43z7d47GY2T/bezt3L4h+TtrMyiVRd185/992zFKf8B5SNv40XeT29/bv2S3SRPnz69vXnVEuepi4/9bdm3ejdej7PeL1V++deSv1P29fn9Wry7p3lb582w6JS5yKH1qjeZDM4vs/7zXBEx+Wl+J3+udivvPuir68nFftXPYvaRfnn7eVafScPhl0XeZSt/ZdUqk+l49EtWrM7ta6tWGl31zgbTm2KlFi+u/K7mJe5KVU25W0jWl5Uq06P04pOPu+m8vvAkj5NQNq3MdCvO+uvBfFct9PpfN50p8vHkSfK3v/+Y/N/3f/8hefn9Dz/+5a9/Sr79/k9/eZ78+cUPL4oFfDNbtbOPvfyIlkxHyWQ0niaX1+9mfXCWzJUmk6Q3OZsdXgaX5wUS7+59nrOyM/cOktfFF5dxNr0eXyZXvfEk+2Y46k33e/mS/2j2Ua787PX8Z4Vu5uYj2krZxVvYFPxrvaaX5flzPt3nk33/i372pnc9nCZX49FsDcu+OEi++N3JyfPnL158UbN4BhxwwAEHHHDAAQcccMAB5z8TJ5lcv5v9T+Ckn+U/TPq9m5xonPWhgQYaaKCBBhpooIEGGmigidN8mH816xOa18PrDBxwwAEHHHDAAQcccMABB5wqOMu/Gxjyvxv48tr6u4HtMP8vbM+eHR2dnkIKKaSQQgoppJBCCimkkEIKKaTNIE3npL2pRXo4J2230/SkCymkkEIKKaSQQgoppJBCCimkkDaDtJ2TfjMeGKTp6Zw0hOPjdhtSSCGFFFJIIYUUUkghhRRSSCFtBulRTvrjxbVFejInPZ2Nzh8hhRRSSCGFFFJIIYUUUkghhRTSZpB2ctJ/Zn2L9HhO+vXXz58fH0MKKaSQQgoppJBCCimkkEIKKaTNIO3O/5+J68wi7c5Jnz/vdiGFFFJIIYUUUkghhRRSSCGFFNKmkB7npN+NLLNg2pmTnpykaacDKaSQQgoppJBCCimkkEIKKaSQbo30DqU/7n3Y3xj2sTUdTIfZy4veVdaaZh+n+1/8eXQ9nmzGuLn/m18P3mWXk8HocphN5gkbIp48SZ71+0kvmSclHwbTi2Qyepcl/faG35y8P2/1rq6yy/7+Xl5779GGX7gbrd50Ot7f+7h3kHQPS/7SzeyX0uK/NJneDLNbvMe9y7OL0Xj2+3vD7E0J2kXGm9Hl9PGHbHB+Mc0zXo+G/eIZt5/NP5794/YG/5BdZL1pkibfn50lL88uvngU+5i+ejI5Gw+upv9jvuarJ/3B+89fNn/HDptlJYP+072zvIefz952b3CZjV8dH+0l83vxdK8/mFwNezdfDi6Hs0uPXw9HZ7/8Yc/mm4XevoVkenM1+/38djx523vfu/1p9Dfz8b43ztsteZr0B++uhlnrMvvw8v35/t7v7jMeJEeHh/N/bJw+eWy/N+3Ncn/6196w9zob7n2518/e9K6H0+RqPHozGGZ7B7dXXn3c+zK0Dg/23veG19ni38/yVWb2O7OF4/nzFy/2fj0olJOKctqinCNRTkeU0xXlHItyTkQ5p6KccKgKUnV0ULV0UPV0UDV1UHV1ULV1UPV1UDV2UHV2qursVLZWqzo7VXV2Wqqzk8n1u3drf3a60I42zvolYsx7VC7GvEPlYsz7Uy7GnPflYsxZXy7GnPPlYswZXy7GnO/lYuyNrGSOqI/tbaxkjqiT7U2sZI6ol+0trGSOqJvtDaxkjqif7e2rZI5qXRb1s713lcwp3s8fBpfT8tvW6/xHxXPM21Myx7w9JXPM21Myx5zuJXPM6V4yx5zuJXPM6V4yx5zuJXPs/atskKqj7R2sbJCqp+09rGyQqqvtXaxskKqv7X2sbJCqs+2drGyQbK1Wdba9mZUNKt7Zy/8OsfHvBFvb3OHa/9C7/UPCghJp/SXa9Zc4qr9Ep/4S3fpLHNdf4qT+Eqf1l1jb2euqsYX5HbYwwcMWZnjYwhQPW5jjYQuTPGxhloctTPOwhXmebmGep9vYx7cwz9MtzPO02jzf+OcYix2rbv9eo6CE/WnIStgfhqyE/VnISthLrqyEveLKStgLrqyEvd7KStjLraxE5Filq7GF+R05VulqbGGGR45VuhpbmOORY5WuxhZmeeRYpauxhXkeOVbpamxjH9/CPI8cq3Q1qs3zjX/1qtix6vbPYglK2J+GrIT9YchK2J+FrIS95MpK2CuurIS94MpK2OutrIT93ShZicgXAnU17G9U6WrYX7bS1bC/h6WrYX9FS1fD/l6irob9lUVdDfvbjLoa9hcddTW2MM8jxypdjW3s41vYyCPHKl2Nalv5xj8uUuxYdfvXRwQl7E9DVsL+MGQl7M9CVsI+VslK2McqWQn7WCUrYR+rZCXs5VZWInKs0tWwj1W6GvaxSlfDPlbpatjHKl0N+1ilq2Efq3Q17GOVroZ9rNLV2MI8jxyrdDW2sY9vYSOPHKt0Napt5Rsd7sWOVbeSd0EJ+9OQlbA/DFkJ+7OQlbCPVbIS9rFKVsI+VslK2McqWQl7uZWViByrdDXsY5Wuhn2s0tWwj1W6GvaxSlfDPlbpatjHKl0N+1ilq2Efq3Q1tjDPI8cqXY1t7ONb2MgjxypdjWpb+UZVbrFj1a1LV1DC/jRkJewPQ1bC/ixkJexjlayEfaySlbCPVbIS9rFKVsJebmUlIscqXQ37WKWrYR+rdDXsY5Wuhn2s0tWwj1W6GvaxSlfDPlbpatjHKl2NLczzyLFKV2Mb+/gWNvLIsUpXo9pWvtFIWOxYdassFJSwPw1ZCfvDkJWwPwtZCftYJSthH6tkJexjlayEfaySlYh5p0QlorI1VY2YrUpVIyayUtWIOa5UNWL6K1WNmPNNVSOmg1PViJniVDViEjlVjS3M88ixSldjG/v4FjbyyLFKV2PzVv5zEcPrQsacPE0usw93Atm5N3Z/8v78YG6A3aiKvTM6T7LpH0fXl/3JfufwIAmhc5C0839LO8V0sx9nGEtRdb//vDfNzkfjm2cfB5NbI/Ly/RfQRs8Cvh/3s/EP17mguPAv5hw36xzfZb3J9Ti7xcgdy4v7XrOym8tc5jKXucxlLnOZy1zmMpe5zGUuc5nLXOYyl7nMZS5zmctc5jKXucxlLnOZy1zmMpe5zGUuc5nLXOYyl7nMZS5zmctc5jKXucxlLnOZy/9Rl29ao/fZeDzoZ9/18gdrQ+vQ+bxq/mjsZP3R2JfZeJBNFo/X7h3cPUB8NRxNW8PBZbbxEdnJ557T3fxk7aQ1/9PzV6NhbzoYXc6g9ibT7Orx6+zNaJztFXvy+dvsPLvsr7+h25/tdw8Pknb+5PJh/iBz/o+9YfZmmoNtiL6Lbb06z6YvLqf5/ZmVeHN9eTYn3X+U/GtDxB1htvztnzY+y52PwZtkf3oxmLQm80+lWKF8rPxSa3b/XvTOLvb/DVw27Q4/f3R8xr7IfXU1mgzywK9nPy7ybu5GHvMZqvHoQzmkO6zBZT/L58PjcFDyt+/G26q/+GaQDfN+21/c09t5cj4eXV9l/eT3v0/+a/Hzj61XF73J4vn3fII9Wr1689mrsxvS6p2ff5PXaA2zy/PpRfJVkib/m+w9Gw73ki/XXzEZDs6y/cfh0U+HPz/aON/uvZPRONl/O3srh39I3s7KLFp1UTf/2X/PVpzyH1A+8jZe5P309ufWL9lN8vTp09ubVy1xnrr42N+Wfat34/U46/1S5Zd/Lfk7ZV+f36/Fu3uat3XeDItOmYscWq96k8ng/DLrP88VEZOf5nfy52q38u6DvrqeXOxX/SxmH+mXt59n9Zk0HH5Z5F228ldWrTKZjke/ZMXq3L62aqXRVe9sML0pVmrx4srval7irlTVlLuFZH1ZqTI9Si8++bibzusLT/I4CWXTyky34qy/Hsx31UKv/3XTmSIfT54kf/v7j8n/ff/3H5KX3//w41/++qfk2+//9JfnyZ9f/PCiWMA3s1U7+9jLj2jJdJRMRuNpcnn9btYHZ8lcaTJJepOz2eFlcHleIPHu3uc5Kztz7yB5XXxxGWfT6/FlctUbT7JvhqPedL+XL/mPZh/lys9ez39W6GZuPqKtlF28hU3Bv9ZrelmeP+fTfT7Z97/oZ29618NpcjUezdaw7IuD5IvfnZw8f/7ixRc1i2fAAQcccMABBxxwwAEHHHD+M3GSyfW72f8ETvpZ/sOk37vJicZZHxpooIEGGmiggQYaaKCBBpo4zYf5V7M+oXk9vM7AAQcccMABBxxwwAEHHHDAqYKz/LuBIf+7gS+vrb8b2A7z/8L27NnR0ekppJBCCimkkEIKKaSQQgoppJBC2gzSdE7am1qkh3PSdjtNT7qQQgoppJBCCimkkEIKKaSQQgppM0jbOek344FBmp7OSUM4Pm63IYUUUkghhRRSSCGFFFJIIYUU0maQHuWkP15cW6Qnc9LT2ej8EVJIIYUUUkghhRRSSCGFFFJIIW0GaScn/WfWt0iP56Rff/38+fExpJBCCimkkEIKKaSQQgoppJBC2gzS7vz/mbjOLNLunPT5824XUkghhRRSSCGFFFJIIYUUUkghbQrpcU763cgyC6adOenJSZp2OpBCCimkkEIKKaSQQgoppJBCCunWSO9Q+uPeh/2NYR9b08F0mL286F1lrWn2cbr/xZ9H1+PJZoyb+7/59eBddjkZjC6H2WSesCHiyZPkWb+f9JJ5UvJhML1IJqN3WdJvb/jNyfvzVu/qKrvs7+/ltfcebfiFu9HqTafj/b2PewdJ97DkL93Mfikt/kuT6c0wu8V73Ls8uxiNZ7+/N8zelKBdZLwZXU4ff8gG5xfTPOP1aNgvnnH72fzj2T9ub/AP2UXWmyb/v73z/WkbB+P4+/srfDlpl+pKaMqA0a077VjZJm3HCTadTgghN3FbQ5pE+VGoJv73s9Ok1wJZ7dgeQ/f4BWV18vXHzvPY1px9d+x56NSb/Nr61kN6tZ16CY2z17XXvNr26ezh6tp76sWYFqJ+3/J4BB+yTmMakuRif9dCxUj0LZ+mcYDnPRoGrGprGETe1Uurno+JLrqAsnnM7ueDsX2JZ3jx7Tfv5GWGEx5sqI98Oo0D4oTk+nQ2tq1f7jO20fNOp/ixMXm4rI8zzHTPvloBHpLA6lk+GeE8yFCcRCMaEKu9qLm4sXqu02lbMxzkxOrtHTgHK+XFQdvy+IzDFNgkcng4GFi3bSHVrhHVHSOqz42o7hpR3TOium9E9YUR1QMjqm7HjKyZ7HLNpJdrJr9cMwnmmskw10yKuWZyzDWTZK6ZLOuaybKuoTXMTJZ1zWRZVyHLUJpPp2v/iXeDHUJCfAlRwbGVExUcWTlRwXGVExWcu+REBWcuOVHBeUtOVHDWkhMVnLPkREU3BpKqRnJKdFsgqWokq0Q3BZKqRvJKdEsgqWoks0Q3BJKqRnJLdDsgqWpmvTKSW6J7AUnVprl1TcNMdRsw5BeIqwoOq6Sq4LBKqgoOq6Sq4JQlqSo4ZUmqCk5ZkqqCU5akquCUJakquh+QlTWTXaI7AllZM/kluieQlTWTYaK7AllZMzkmui+QlTWTZaI7A1lZQ2uYmSwT3RzIykpl2bnIgUN5Moj6KCTX1XlGcYxhp7NxuziQ2HhyUR0vpiT7I8pDP7V3O23kurtttMN/6+6KnX7cMIzlqanvH+KMjKNk/uaGpovjueVQCJxhMoHjxCfJSc5Py4Rv5BzzdY5PBKd5QhYY/MCvfASqp7LFOdJ6U6ckoSQtcVlL5QOJgyhz+OHWxibTh/q9mTR1iriLowBnNAoZlJVmJN4aklGUEEsskj6SMQn99Q4tvrP3WBTs8Ejgh2Eu/1Eeem48D65knYsxyQZhxseHNTHKQ68gtVvoq8CpJycky7vPNuYGL3SE7GxCUxbX/D6xhnhZuclh4zfA3sT+D1hWrcIvzwZL3Ys4SikXfMu+FulNVbjMA1RJdC2HVGHR0Cc8cbfctuTdVblseuOIkoDHm12O6SJPxkmUx8RHz56hn8vvb5yLCU7L+YQnWGu1dv5gLRsQB4/HR7wNJyDhOJugV6iLfkfWmyCwUG/9ijSgHrG33NZZ57y1Md/u9SRKkH3JutJ5iS5ZM2Wolu3y737rI1f+AfHCw7jUO7s8d64Im976/cXgNVMsVMvHfinb1aoME4Kvmtx8K3mP7PV8vMre9XlY82AoI6VYGJ2LxRs9xC/e6UnPipE8bzaU1YOO83RiN30W7JH2Fs+zeSYFQU+klw6/smkraZZEV0SsncW1TVuKYuzRbC7WVHlx414VTVRNNVWpJpL1aaVJekhPPrxU6bw+8aAt5MqqyaSbOOttu1hVha6/3bSn4GV7G/315TP65/jLCTo9Pvn84c936OPxuw+H6P3gZCAmcMRmbXKD+RYNZRFKI7aRDvMpiwMPFVvEFOHUY5sXGo4FFKux5zorKzNuo6H45JKQLE9CFOMkJUdBhDMb8ym/xR7lynfD4juhwdy8RVtptuzCJuHbR3jz8s4BbPl6JT9QfZQXQQEHcAAHcAAHcAAHcAAHcAAHcJ48zv0XXDhRQnygARqgARqgARqgARqgARqgARqg+TbNvVcCOQ1/xQ9wAAdwAAdwAAdwAAdwAAdwAAdwHtHv8DOZxiTBWZ4QZB+1wPHwh3I8/BvziHtPio830yElYYb4I+O+h8TP2fhvof3O0dOwQNx7AhaIe9/NArH4h6dNLZg06exo0nmuSWdXk86eJp19TTovNOkcaNJZ8xZQEtIV0a6ukHZ1xbSrK6hdXVHt6gprV1dcu7oC29UV2V1dkd3VNlfriuyursjuSkW2uGXfmlRzkz4FmdoRam7EpyBTm/fNzfYUZGpzvrmhnoJMbb4rmOap6GiK4/plTMEKT0VHUyjXr2EKBncqOpqiuX4BU7CtU5kHNcVz/eqlYEanoqMpnuuXruYWc2syCqZyKjq1w6NgHKeiU5vuCuZwKjq16a5gAKeiU5vuKiZvSkK6Irp+BVOxblMS0hXU9YuYiiGbkpCuuK5fx1Rs1pRmRl2RXb+UqZinKQnpiuz61Qws0Z6EJRpUQzVUQzVUQzVUQzVUQzVUQzVUQzVUQzVU/0jVcyeakSShPvmE+V9UuU4HLPFXegKW+MsClvhSBSzxwRJfooAl/t0Clvh3C1jiSxawxAdL/AcLWOIDDuAADuAADuAADuAADuAADuAAzlMwlAQaoAEaoAEaoAEaoAEaoAEaoHk6NP8bI0vAARzAARzAARzAARzAARzAAZzm7T2CJf5bOiVhSqMwIGkKhvg/liF+lFyhwWhEPUpCb760wf++Bvjl1XdqVv9c/b74XKqXvyw/hpE/55+TbBq8/ulfcoy1cw=="
               },
               {
                  "name" : "annual_peak_electric_demand",
                  "units" : "kW",
                  "value" : 178.45783
               },
               {
                  "name" : "first_year_capital_cost",
                  "units" : "$",
                  "value" : 0
               },
               {
                  "name" : "annual_utility_cost",
                  "units" : "$",
                  "value" : 0
               },
               {
                  "name" : "total_lifecycle_cost",
                  "units" : "$",
                  "value" : 0
               }
            ],
            "step_warnings" : []
         }
      }
   ],
   "updated_at" : "20170710T183235Z",
   "weather_file" : "USA_CO_Denver.Intl.AP.725650_TMY3.epw"
}
