{
   "completed_at" : "20170710T190011Z",
   "completed_status" : "Success",
   "created_at" : "2017-07-10 18:40:24 +0000",
   "current_step" : 5,
   "description" : "",
   "eplusout_err" : "Program Version,EnergyPlus, Version 8.7.0-78a111df4a, YMD=2017.07.10 18:45,IDD_Version 8.7.0\n   ************* IDF Context for following error/warning message:\n   ************* Note -- lines truncated at 300 characters, if necessary...\n   *************      5 Building,\n   ************* indicated Name=NECB 2011-HighriseApartment-NECB HDD Method-CAN_ON_Windsor.715380_CWEC.epw created: 2017-07-10 18:40:34 +0000\n   ************* Only last 1 lines before error line shown.....\n   *************      6   NECB 2011-HighriseApartment-NECB HDD Method-CAN_ON_Windsor.715380_CWEC.epw created: 2017-07-10 18:40:34 +0000, !- Name\n   ** Warning ** IP: IDF line~6 Alpha Argument length exceeds maximum, will be truncated=  NECB 2011-HighriseApartment-NECB HDD Method-CAN_ON_Windsor.715380_CWEC.epw created: 2017-07-10 18:40:34 +000\n   **   ~~~   ** Will be processed as Alpha=NECB 2011-HIGHRISEAPARTMENT-NECB HDD METHOD-CAN_ON_WINDSOR.715380_CWEC.EPW CREATED: 2017-07-10 18:40:34 +0000\n   ************* Beginning Zone Sizing Calculations\n   ** Warning ** ProcessScheduleInput: Schedule:Day:Interval=\"ECONOMIZER MAX OA FRACTION 100 PCT DEFAULT\", Blank Schedule Type Limits Name input -- will not be validated.\n   ** Warning ** ProcessScheduleInput: Schedule:Day:Interval=\"SCHEDULE DAY 1\", Blank Schedule Type Limits Name input -- will not be validated.\n   ** Warning ** ProcessScheduleInput: Schedule:Day:Interval=\"SCHEDULE DAY 10\", Blank Schedule Type Limits Name input -- will not be validated.\n   ** Warning ** ProcessScheduleInput: Schedule:Day:Interval=\"SCHEDULE DAY 100\", Blank Schedule Type Limits Name input -- will not be validated.\n   ** Warning ** ProcessScheduleInput: Schedule:Day:Interval=\"SCHEDULE DAY 101\", Blank Schedule Type Limits Name input -- will not be validated.\n   ** Warning ** ProcessScheduleInput: Schedule:Day:Interval=\"SCHEDULE DAY 102\", Blank Schedule Type Limits Name input -- will not be validated.\n   ** Warning ** ProcessScheduleInput: Schedule:Day:Interval=\"SCHEDULE DAY 103\", Blank Schedule Type Limits Name input -- will not be validated.\n   ** Warning ** ProcessScheduleInput: Schedule:Day:Interval=\"SCHEDULE DAY 104\", Blank Schedule Type Limits Name input -- will not be validated.\n   ** Warning ** ProcessScheduleInput: Schedule:Day:Interval=\"SCHEDULE DAY 105\", Blank Schedule Type Limits Name input -- will not be validated.\n   ** Warning ** ProcessScheduleInput: Schedule:Day:Interval=\"SCHEDULE DAY 106\", Blank Schedule Type Limits Name input -- will not be validated.\n   ** Warning ** ProcessScheduleInput: Schedule:Day:Interval=\"SCHEDULE DAY 107\", Blank Schedule Type Limits Name input -- will not be validated.\n   ** Warning ** ProcessScheduleInput: Schedule:Day:Interval=\"SCHEDULE DAY 108\", Blank Schedule Type Limits Name input -- will not be validated.\n   ** Warning ** ProcessScheduleInput: Schedule:Day:Interval=\"SCHEDULE DAY 109\", Blank Schedule Type Limits Name input -- will not be validated.\n   ** Warning ** ProcessScheduleInput: Schedule:Day:Interval=\"SCHEDULE DAY 11\", Blank Schedule Type Limits Name input -- will not be validated.\n   ** Warning ** ProcessScheduleInput: Schedule:Day:Interval=\"SCHEDULE DAY 110\", Blank Schedule Type Limits Name input -- will not be validated.\n   ** Warning ** ProcessScheduleInput: Schedule:Day:Interval=\"SCHEDULE DAY 111\", Blank Schedule Type Limits Name input -- will not be validated.\n   ** Warning ** ProcessScheduleInput: Schedule:Day:Interval=\"SCHEDULE DAY 112\", Blank Schedule Type Limits Name input -- will not be validated.\n   ** Warning ** ProcessScheduleInput: Schedule:Day:Interval=\"SCHEDULE DAY 113\", Blank Schedule Type Limits Name input -- will not be validated.\n   ** Warning ** ProcessScheduleInput: Schedule:Day:Interval=\"SCHEDULE DAY 114\", Blank Schedule Type Limits Name input -- will not be validated.\n   ** Warning ** ProcessScheduleInput: Schedule:Day:Interval=\"SCHEDULE DAY 115\", Blank Schedule Type Limits Name input -- will not be validated.\n   ** Warning ** ProcessScheduleInput: Schedule:Day:Interval=\"SCHEDULE DAY 116\", Blank Schedule Type Limits Name input -- will not be validated.\n   ** Warning ** ProcessScheduleInput: Schedule:Day:Interval=\"SCHEDULE DAY 117\", Blank Schedule Type Limits Name input -- will not be validated.\n   ** Warning ** ProcessScheduleInput: Schedule:Day:Interval=\"SCHEDULE DAY 118\", Blank Schedule Type Limits Name input -- will not be validated.\n   ** Warning ** ProcessScheduleInput: Schedule:Day:Interval=\"SCHEDULE DAY 119\", Blank Schedule Type Limits Name input -- will not be validated.\n   ** Warning ** ProcessScheduleInput: Schedule:Day:Interval=\"SCHEDULE DAY 12\", Blank Schedule Type Limits Name input -- will not be validated.\n   ** Warning ** ProcessScheduleInput: Schedule:Day:Interval=\"SCHEDULE DAY 120\", Blank Schedule Type Limits Name input -- will not be validated.\n   ** Warning ** ProcessScheduleInput: Schedule:Day:Interval=\"SCHEDULE DAY 121\", Blank Schedule Type Limits Name input -- will not be validated.\n   ** Warning ** ProcessScheduleInput: Schedule:Day:Interval=\"SCHEDULE DAY 122\", Blank Schedule Type Limits Name input -- will not be validated.\n   ** Warning ** ProcessScheduleInput: Schedule:Day:Interval=\"SCHEDULE DAY 123\", Blank Schedule Type Limits Name input -- will not be validated.\n   ** Warning ** ProcessScheduleInput: Schedule:Day:Interval=\"SCHEDULE DAY 124\", Blank Schedule Type Limits Name input -- will not be validated.\n   ** Warning ** ProcessScheduleInput: Schedule:Day:Interval=\"SCHEDULE DAY 125\", Blank Schedule Type Limits Name input -- will not be validated.\n   ** Warning ** ProcessScheduleInput: Schedule:Day:Interval=\"SCHEDULE DAY 126\", Blank Schedule Type Limits Name input -- will not be validated.\n   ** Warning ** ProcessScheduleInput: Schedule:Day:Interval=\"SCHEDULE DAY 127\", Blank Schedule Type Limits Name input -- will not be validated.\n   ** Warning ** ProcessScheduleInput: Schedule:Day:Interval=\"SCHEDULE DAY 128\", Blank Schedule Type Limits Name input -- will not be validated.\n   ** Warning ** ProcessScheduleInput: Schedule:Day:Interval=\"SCHEDULE DAY 129\", Blank Schedule Type Limits Name input -- will not be validated.\n   ** Warning ** ProcessScheduleInput: Schedule:Day:Interval=\"SCHEDULE DAY 13\", Blank Schedule Type Limits Name input -- will not be validated.\n   ** Warning ** ProcessScheduleInput: Schedule:Day:Interval=\"SCHEDULE DAY 130\", Blank Schedule Type Limits Name input -- will not be validated.\n   ** Warning ** ProcessScheduleInput: Schedule:Day:Interval=\"SCHEDULE DAY 131\", Blank Schedule Type Limits Name input -- will not be validated.\n   ** Warning ** ProcessScheduleInput: Schedule:Day:Interval=\"SCHEDULE DAY 132\", Blank Schedule Type Limits Name input -- will not be validated.\n   ** Warning ** ProcessScheduleInput: Schedule:Day:Interval=\"SCHEDULE DAY 133\", Blank Schedule Type Limits Name input -- will not be validated.\n   ** Warning ** ProcessScheduleInput: Schedule:Day:Interval=\"SCHEDULE DAY 134\", Blank Schedule Type Limits Name input -- will not be validated.\n   ** Warning ** ProcessScheduleInput: Schedule:Day:Interval=\"SCHEDULE DAY 135\", Blank Schedule Type Limits Name input -- will not be validated.\n   ** Warning ** ProcessScheduleInput: Schedule:Day:Interval=\"SCHEDULE DAY 136\", Blank Schedule Type Limits Name input -- will not be validated.\n   ** Warning ** ProcessScheduleInput: Schedule:Day:Interval=\"SCHEDULE DAY 137\", Blank Schedule Type Limits Name input -- will not be validated.\n   ** Warning ** ProcessScheduleInput: Schedule:Day:Interval=\"SCHEDULE DAY 138\", Blank Schedule Type Limits Name input -- will not be validated.\n   ** Warning ** ProcessScheduleInput: Schedule:Day:Interval=\"SCHEDULE DAY 139\", Blank Schedule Type Limits Name input -- will not be validated.\n   ** Warning ** ProcessScheduleInput: Schedule:Day:Interval=\"SCHEDULE DAY 14\", Blank Schedule Type Limits Name input -- will not be validated.\n   ** Warning ** ProcessScheduleInput: Schedule:Day:Interval=\"SCHEDULE DAY 140\", Blank Schedule Type Limits Name input -- will not be validated.\n   ** Warning ** ProcessScheduleInput: Schedule:Day:Interval=\"SCHEDULE DAY 141\", Blank Schedule Type Limits Name input -- will not be validated.\n   ** Warning ** ProcessScheduleInput: Schedule:Day:Interval=\"SCHEDULE DAY 142\", Blank Schedule Type Limits Name input -- will not be validated.\n   ** Warning ** ProcessScheduleInput: Schedule:Day:Interval=\"SCHEDULE DAY 143\", Blank Schedule Type Limits Name input -- will not be validated.\n   ** Warning ** ProcessScheduleInput: Schedule:Day:Interval=\"SCHEDULE DAY 144\", Blank Schedule Type Limits Name input -- will not be validated.\n   ** Warning ** ProcessScheduleInput: Schedule:Day:Interval=\"SCHEDULE DAY 145\", Blank Schedule Type Limits Name input -- will not be validated.\n   ** Warning ** ProcessScheduleInput: Schedule:Day:Interval=\"SCHEDULE DAY 146\", Blank Schedule Type Limits Name input -- will not be validated.\n   ** Warning ** ProcessScheduleInput: Schedule:Day:Interval=\"SCHEDULE DAY 147\", Blank Schedule Type Limits Name input -- will not be validated.\n   ** Warning ** ProcessScheduleInput: Schedule:Day:Interval=\"SCHEDULE DAY 148\", Blank Schedule Type Limits Name input -- will not be validated.\n   ** Warning ** ProcessScheduleInput: Schedule:Day:Interval=\"SCHEDULE DAY 149\", Blank Schedule Type Limits Name input -- will not be validated.\n   ** Warning ** ProcessScheduleInput: Schedule:Day:Interval=\"SCHEDULE DAY 15\", Blank Schedule Type Limits Name input -- will not be validated.\n   ** Warning ** ProcessScheduleInput: Schedule:Day:Interval=\"SCHEDULE DAY 150\", Blank Schedule Type Limits Name input -- will not be validated.\n   ** Warning ** ProcessScheduleInput: Schedule:Day:Interval=\"SCHEDULE DAY 151\", Blank Schedule Type Limits Name input -- will not be validated.\n   ** Warning ** ProcessScheduleInput: Schedule:Day:Interval=\"SCHEDULE DAY 152\", Blank Schedule Type Limits Name input -- will not be validated.\n   ** Warning ** ProcessScheduleInput: Schedule:Day:Interval=\"SCHEDULE DAY 153\", Blank Schedule Type Limits Name input -- will not be validated.\n   ** Warning ** ProcessScheduleInput: Schedule:Day:Interval=\"SCHEDULE DAY 154\", Blank Schedule Type Limits Name input -- will not be validated.\n   ** Warning ** ProcessScheduleInput: Schedule:Day:Interval=\"SCHEDULE DAY 155\", Blank Schedule Type Limits Name input -- will not be validated.\n   ** Warning ** ProcessScheduleInput: Schedule:Day:Interval=\"SCHEDULE DAY 156\", Blank Schedule Type Limits Name input -- will not be validated.\n   ** Warning ** ProcessScheduleInput: Schedule:Day:Interval=\"SCHEDULE DAY 157\", Blank Schedule Type Limits Name input -- will not be validated.\n   ** Warning ** ProcessScheduleInput: Schedule:Day:Interval=\"SCHEDULE DAY 158\", Blank Schedule Type Limits Name input -- will not be validated.\n   ** Warning ** ProcessScheduleInput: Schedule:Day:Interval=\"SCHEDULE DAY 159\", Blank Schedule Type Limits Name input -- will not be validated.\n   ** Warning ** ProcessScheduleInput: Schedule:Day:Interval=\"SCHEDULE DAY 16\", Blank Schedule Type Limits Name input -- will not be validated.\n   ** Warning ** ProcessScheduleInput: Schedule:Day:Interval=\"SCHEDULE DAY 160\", Blank Schedule Type Limits Name input -- will not be validated.\n   ** Warning ** ProcessScheduleInput: Schedule:Day:Interval=\"SCHEDULE DAY 161\", Blank Schedule Type Limits Name input -- will not be validated.\n   ** Warning ** ProcessScheduleInput: Schedule:Day:Interval=\"SCHEDULE DAY 162\", Blank Schedule Type Limits Name input -- will not be validated.\n   ** Warning ** ProcessScheduleInput: Schedule:Day:Interval=\"SCHEDULE DAY 163\", Blank Schedule Type Limits Name input -- will not be validated.\n   ** Warning ** ProcessScheduleInput: Schedule:Day:Interval=\"SCHEDULE DAY 164\", Blank Schedule Type Limits Name input -- will not be validated.\n   ** Warning ** ProcessScheduleInput: Schedule:Day:Interval=\"SCHEDULE DAY 165\", Blank Schedule Type Limits Name input -- will not be validated.\n   ** Warning ** ProcessScheduleInput: Schedule:Day:Interval=\"SCHEDULE DAY 166\", Blank Schedule Type Limits Name input -- will not be validated.\n   ** Warning ** ProcessScheduleInput: Schedule:Day:Interval=\"SCHEDULE DAY 167\", Blank Schedule Type Limits Name input -- will not be validated.\n   ** Warning ** ProcessScheduleInput: Schedule:Day:Interval=\"SCHEDULE DAY 168\", Blank Schedule Type Limits Name input -- will not be validated.\n   ** Warning ** ProcessScheduleInput: Schedule:Day:Interval=\"SCHEDULE DAY 169\", Blank Schedule Type Limits Name input -- will not be validated.\n   ** Warning ** ProcessScheduleInput: Schedule:Day:Interval=\"SCHEDULE DAY 17\", Blank Schedule Type Limits Name input -- will not be validated.\n   ** Warning ** ProcessScheduleInput: Schedule:Day:Interval=\"SCHEDULE DAY 170\", Blank Schedule Type Limits Name input -- will not be validated.\n   ** Warning ** ProcessScheduleInput: Schedule:Day:Interval=\"SCHEDULE DAY 171\", Blank Schedule Type Limits Name input -- will not be validated.\n   ** Warning ** ProcessScheduleInput: Schedule:Day:Interval=\"SCHEDULE DAY 172\", Blank Schedule Type Limits Name input -- will not be validated.\n   ** Warning ** ProcessScheduleInput: Schedule:Day:Interval=\"SCHEDULE DAY 173\", Blank Schedule Type Limits Name input -- will not be validated.\n   ** Warning ** ProcessScheduleInput: Schedule:Day:Interval=\"SCHEDULE DAY 174\", Blank Schedule Type Limits Name input -- will not be validated.\n   ** Warning ** ProcessScheduleInput: Schedule:Day:Interval=\"SCHEDULE DAY 175\", Blank Schedule Type Limits Name input -- will not be validated.\n   ** Warning ** ProcessScheduleInput: Schedule:Day:Interval=\"SCHEDULE DAY 176\", Blank Schedule Type Limits Name input -- will not be validated.\n   ** Warning ** ProcessScheduleInput: Schedule:Day:Interval=\"SCHEDULE DAY 177\", Blank Schedule Type Limits Name input -- will not be validated.\n   ** Warning ** ProcessScheduleInput: Schedule:Day:Interval=\"SCHEDULE DAY 178\", Blank Schedule Type Limits Name input -- will not be validated.\n   ** Warning ** ProcessScheduleInput: Schedule:Day:Interval=\"SCHEDULE DAY 179\", Blank Schedule Type Limits Name input -- will not be validated.\n   ** Warning ** ProcessScheduleInput: Schedule:Day:Interval=\"SCHEDULE DAY 18\", Blank Schedule Type Limits Name input -- will not be validated.\n   ** Warning ** ProcessScheduleInput: Schedule:Day:Interval=\"SCHEDULE DAY 180\", Blank Schedule Type Limits Name input -- will not be validated.\n   ** Warning ** ProcessScheduleInput: Schedule:Day:Interval=\"SCHEDULE DAY 181\", Blank Schedule Type Limits Name input -- will not be validated.\n   ** Warning ** ProcessScheduleInput: Schedule:Day:Interval=\"SCHEDULE DAY 182\", Blank Schedule Type Limits Name input -- will not be validated.\n   ** Warning ** ProcessScheduleInput: Schedule:Day:Interval=\"SCHEDULE DAY 183\", Blank Schedule Type Limits Name input -- will not be validated.\n   ** Warning ** ProcessScheduleInput: Schedule:Day:Interval=\"SCHEDULE DAY 184\", Blank Schedule Type Limits Name input -- will not be validated.\n   ** Warning ** ProcessScheduleInput: Schedule:Day:Interval=\"SCHEDULE DAY 185\", Blank Schedule Type Limits Name input -- will not be validated.\n   ** Warning ** ProcessScheduleInput: Schedule:Day:Interval=\"SCHEDULE DAY 186\", Blank Schedule Type Limits Name input -- will not be validated.\n   ** Warning ** ProcessScheduleInput: Schedule:Day:Interval=\"SCHEDULE DAY 187\", Blank Schedule Type Limits Name input -- will not be validated.\n   ** Warning ** ProcessScheduleInput: Schedule:Day:Interval=\"SCHEDULE DAY 188\", Blank Schedule Type Limits Name input -- will not be validated.\n   ** Warning ** ProcessScheduleInput: Schedule:Day:Interval=\"SCHEDULE DAY 189\", Blank Schedule Type Limits Name input -- will not be validated.\n   ** Warning ** ProcessScheduleInput: Schedule:Day:Interval=\"SCHEDULE DAY 19\", Blank Schedule Type Limits Name input -- will not be validated.\n   ** Warning ** ProcessScheduleInput: Schedule:Day:Interval=\"SCHEDULE DAY 190\", Blank Schedule Type Limits Name input -- will not be validated.\n   ** Warning ** ProcessScheduleInput: Schedule:Day:Interval=\"SCHEDULE DAY 191\", Blank Schedule Type Limits Name input -- will not be validated.\n   ** Warning ** ProcessScheduleInput: Schedule:Day:Interval=\"SCHEDULE DAY 192\", Blank Schedule Type Limits Name input -- will not be validated.\n   ** Warning ** ProcessScheduleInput: Schedule:Day:Interval=\"SCHEDULE DAY 193\", Blank Schedule Type Limits Name input -- will not be validated.\n   ** Warning ** ProcessScheduleInput: Schedule:Day:Interval=\"SCHEDULE DAY 194\", Blank Schedule Type Limits Name input -- will not be validated.\n   ** Warning ** ProcessScheduleInput: Schedule:Day:Interval=\"SCHEDULE DAY 195\", Blank Schedule Type Limits Name input -- will not be validated.\n   ** Warning ** ProcessScheduleInput: Schedule:Day:Interval=\"SCHEDULE DAY 196\", Blank Schedule Type Limits Name input -- will not be validated.\n   ** Warning ** ProcessScheduleInput: Schedule:Day:Interval=\"SCHEDULE DAY 197\", Blank Schedule Type Limits Name input -- will not be validated.\n   ** Warning ** ProcessScheduleInput: Schedule:Day:Interval=\"SCHEDULE DAY 198\", Blank Schedule Type Limits Name input -- will not be validated.\n   ** Warning ** ProcessScheduleInput: Schedule:Day:Interval=\"SCHEDULE DAY 199\", Blank Schedule Type Limits Name input -- will not be validated.\n   ** Warning ** ProcessScheduleInput: Schedule:Day:Interval=\"SCHEDULE DAY 2\", Blank Schedule Type Limits Name input -- will not be validated.\n   ** Warning ** ProcessScheduleInput: Schedule:Day:Interval=\"SCHEDULE DAY 20\", Blank Schedule Type Limits Name input -- will not be validated.\n   ** Warning ** ProcessScheduleInput: Schedule:Day:Interval=\"SCHEDULE DAY 200\", Blank Schedule Type Limits Name input -- will not be validated.\n   ** Warning ** ProcessScheduleInput: Schedule:Day:Interval=\"SCHEDULE DAY 201\", Blank Schedule Type Limits Name input -- will not be validated.\n   ** Warning ** ProcessScheduleInput: Schedule:Day:Interval=\"SCHEDULE DAY 202\", Blank Schedule Type Limits Name input -- will not be validated.\n   ** Warning ** ProcessScheduleInput: Schedule:Day:Interval=\"SCHEDULE DAY 203\", Blank Schedule Type Limits Name input -- will not be validated.\n   ** Warning ** ProcessScheduleInput: Schedule:Day:Interval=\"SCHEDULE DAY 204\", Blank Schedule Type Limits Name input -- will not be validated.\n   ** Warning ** ProcessScheduleInput: Schedule:Day:Interval=\"SCHEDULE DAY 205\", Blank Schedule Type Limits Name input -- will not be validated.\n   ** Warning ** ProcessScheduleInput: Schedule:Day:Interval=\"SCHEDULE DAY 206\", Blank Schedule Type Limits Name input -- will not be validated.\n   ** Warning ** ProcessScheduleInput: Schedule:Day:Interval=\"SCHEDULE DAY 207\", Blank Schedule Type Limits Name input -- will not be validated.\n   ** Warning ** ProcessScheduleInput: Schedule:Day:Interval=\"SCHEDULE DAY 208\", Blank Schedule Type Limits Name input -- will not be validated.\n   ** Warning ** ProcessScheduleInput: Schedule:Day:Interval=\"SCHEDULE DAY 209\", Blank Schedule Type Limits Name input -- will not be validated.\n   ** Warning ** ProcessScheduleInput: Schedule:Day:Interval=\"SCHEDULE DAY 21\", Blank Schedule Type Limits Name input -- will not be validated.\n   ** Warning ** ProcessScheduleInput: Schedule:Day:Interval=\"SCHEDULE DAY 210\", Blank Schedule Type Limits Name input -- will not be validated.\n   ** Warning ** ProcessScheduleInput: Schedule:Day:Interval=\"SCHEDULE DAY 211\", Blank Schedule Type Limits Name input -- will not be validated.\n   ** Warning ** ProcessScheduleInput: Schedule:Day:Interval=\"SCHEDULE DAY 212\", Blank Schedule Type Limits Name input -- will not be validated.\n   ** Warning ** ProcessScheduleInput: Schedule:Day:Interval=\"SCHEDULE DAY 213\", Blank Schedule Type Limits Name input -- will not be validated.\n   ** Warning ** ProcessScheduleInput: Schedule:Day:Interval=\"SCHEDULE DAY 214\", Blank Schedule Type Limits Name input -- will not be validated.\n   ** Warning ** ProcessScheduleInput: Schedule:Day:Interval=\"SCHEDULE DAY 215\", Blank Schedule Type Limits Name input -- will not be validated.\n   ** Warning ** ProcessScheduleInput: Schedule:Day:Interval=\"SCHEDULE DAY 216\", Blank Schedule Type Limits Name input -- will not be validated.\n   ** Warning ** ProcessScheduleInput: Schedule:Day:Interval=\"SCHEDULE DAY 217\", Blank Schedule Type Limits Name input -- will not be validated.\n   ** Warning ** ProcessScheduleInput: Schedule:Day:Interval=\"SCHEDULE DAY 218\", Blank Schedule Type Limits Name input -- will not be validated.\n   ** Warning ** ProcessScheduleInput: Schedule:Day:Interval=\"SCHEDULE DAY 219\", Blank Schedule Type Limits Name input -- will not be validated.\n   ** Warning ** ProcessScheduleInput: Schedule:Day:Interval=\"SCHEDULE DAY 22\", Blank Schedule Type Limits Name input -- will not be validated.\n   ** Warning ** ProcessScheduleInput: Schedule:Day:Interval=\"SCHEDULE DAY 220\", Blank Schedule Type Limits Name input -- will not be validated.\n   ** Warning ** ProcessScheduleInput: Schedule:Day:Interval=\"SCHEDULE DAY 221\", Blank Schedule Type Limits Name input -- will not be validated.\n   ** Warning ** ProcessScheduleInput: Schedule:Day:Interval=\"SCHEDULE DAY 222\", Blank Schedule Type Limits Name input -- will not be validated.\n   ** Warning ** ProcessScheduleInput: Schedule:Day:Interval=\"SCHEDULE DAY 223\", Blank Schedule Type Limits Name input -- will not be validated.\n   ** Warning ** ProcessScheduleInput: Schedule:Day:Interval=\"SCHEDULE DAY 224\", Blank Schedule Type Limits Name input -- will not be validated.\n   ** Warning ** ProcessScheduleInput: Schedule:Day:Interval=\"SCHEDULE DAY 225\", Blank Schedule Type Limits Name input -- will not be validated.\n   ** Warning ** ProcessScheduleInput: Schedule:Day:Interval=\"SCHEDULE DAY 226\", Blank Schedule Type Limits Name input -- will not be validated.\n   ** Warning ** ProcessScheduleInput: Schedule:Day:Interval=\"SCHEDULE DAY 227\", Blank Schedule Type Limits Name input -- will not be validated.\n   ** Warning ** ProcessScheduleInput: Schedule:Day:Interval=\"SCHEDULE DAY 228\", Blank Schedule Type Limits Name input -- will not be validated.\n   ** Warning ** ProcessScheduleInput: Schedule:Day:Interval=\"SCHEDULE DAY 229\", Blank Schedule Type Limits Name input -- will not be validated.\n   ** Warning ** ProcessScheduleInput: Schedule:Day:Interval=\"SCHEDULE DAY 23\", Blank Schedule Type Limits Name input -- will not be validated.\n   ** Warning ** ProcessScheduleInput: Schedule:Day:Interval=\"SCHEDULE DAY 230\", Blank Schedule Type Limits Name input -- will not be validated.\n   ** Warning ** ProcessScheduleInput: Schedule:Day:Interval=\"SCHEDULE DAY 231\", Blank Schedule Type Limits Name input -- will not be validated.\n   ** Warning ** ProcessScheduleInput: Schedule:Day:Interval=\"SCHEDULE DAY 232\", Blank Schedule Type Limits Name input -- will not be validated.\n   ** Warning ** ProcessScheduleInput: Schedule:Day:Interval=\"SCHEDULE DAY 233\", Blank Schedule Type Limits Name input -- will not be validated.\n   ** Warning ** ProcessScheduleInput: Schedule:Day:Interval=\"SCHEDULE DAY 234\", Blank Schedule Type Limits Name input -- will not be validated.\n   ** Warning ** ProcessScheduleInput: Schedule:Day:Interval=\"SCHEDULE DAY 235\", Blank Schedule Type Limits Name input -- will not be validated.\n   ** Warning ** ProcessScheduleInput: Schedule:Day:Interval=\"SCHEDULE DAY 236\", Blank Schedule Type Limits Name input -- will not be validated.\n   ** Warning ** ProcessScheduleInput: Schedule:Day:Interval=\"SCHEDULE DAY 237\", Blank Schedule Type Limits Name input -- will not be validated.\n   ** Warning ** ProcessScheduleInput: Schedule:Day:Interval=\"SCHEDULE DAY 238\", Blank Schedule Type Limits Name input -- will not be validated.\n   ** Warning ** ProcessScheduleInput: Schedule:Day:Interval=\"SCHEDULE DAY 239\", Blank Schedule Type Limits Name input -- will not be validated.\n   ** Warning ** ProcessScheduleInput: Schedule:Day:Interval=\"SCHEDULE DAY 24\", Blank Schedule Type Limits Name input -- will not be validated.\n   ** Warning ** ProcessScheduleInput: Schedule:Day:Interval=\"SCHEDULE DAY 240\", Blank Schedule Type Limits Name input -- will not be validated.\n   ** Warning ** ProcessScheduleInput: Schedule:Day:Interval=\"SCHEDULE DAY 241\", Blank Schedule Type Limits Name input -- will not be validated.\n   ** Warning ** ProcessScheduleInput: Schedule:Day:Interval=\"SCHEDULE DAY 242\", Blank Schedule Type Limits Name input -- will not be validated.\n   ** Warning ** ProcessScheduleInput: Schedule:Day:Interval=\"SCHEDULE DAY 243\", Blank Schedule Type Limits Name input -- will not be validated.\n   ** Warning ** ProcessScheduleInput: Schedule:Day:Interval=\"SCHEDULE DAY 244\", Blank Schedule Type Limits Name input -- will not be validated.\n   ** Warning ** ProcessScheduleInput: Schedule:Day:Interval=\"SCHEDULE DAY 245\", Blank Schedule Type Limits Name input -- will not be validated.\n   ** Warning ** ProcessScheduleInput: Schedule:Day:Interval=\"SCHEDULE DAY 246\", Blank Schedule Type Limits Name input -- will not be validated.\n   ** Warning ** ProcessScheduleInput: Schedule:Day:Interval=\"SCHEDULE DAY 247\", Blank Schedule Type Limits Name input -- will not be validated.\n   ** Warning ** ProcessScheduleInput: Schedule:Day:Interval=\"SCHEDULE DAY 248\", Blank Schedule Type Limits Name input -- will not be validated.\n   ** Warning ** ProcessScheduleInput: Schedule:Day:Interval=\"SCHEDULE DAY 249\", Blank Schedule Type Limits Name input -- will not be validated.\n   ** Warning ** ProcessScheduleInput: Schedule:Day:Interval=\"SCHEDULE DAY 25\", Blank Schedule Type Limits Name input -- will not be validated.\n   ** Warning ** ProcessScheduleInput: Schedule:Day:Interval=\"SCHEDULE DAY 250\", Blank Schedule Type Limits Name input -- will not be validated.\n   ** Warning ** ProcessScheduleInput: Schedule:Day:Interval=\"SCHEDULE DAY 251\", Blank Schedule Type Limits Name input -- will not be validated.\n   ** Warning ** ProcessScheduleInput: Schedule:Day:Interval=\"SCHEDULE DAY 26\", Blank Schedule Type Limits Name input -- will not be validated.\n   ** Warning ** ProcessScheduleInput: Schedule:Day:Interval=\"SCHEDULE DAY 27\", Blank Schedule Type Limits Name input -- will not be validated.\n   ** Warning ** ProcessScheduleInput: Schedule:Day:Interval=\"SCHEDULE DAY 28\", Blank Schedule Type Limits Name input -- will not be validated.\n   ** Warning ** ProcessScheduleInput: Schedule:Day:Interval=\"SCHEDULE DAY 29\", Blank Schedule Type Limits Name input -- will not be validated.\n   ** Warning ** ProcessScheduleInput: Schedule:Day:Interval=\"SCHEDULE DAY 30\", Blank Schedule Type Limits Name input -- will not be validated.\n   ** Warning ** ProcessScheduleInput: Schedule:Day:Interval=\"SCHEDULE DAY 31\", Blank Schedule Type Limits Name input -- will not be validated.\n   ** Warning ** ProcessScheduleInput: Schedule:Day:Interval=\"SCHEDULE DAY 32\", Blank Schedule Type Limits Name input -- will not be validated.\n   ** Warning ** ProcessScheduleInput: Schedule:Day:Interval=\"SCHEDULE DAY 33\", Blank Schedule Type Limits Name input -- will not be validated.\n   ** Warning ** ProcessScheduleInput: Schedule:Day:Interval=\"SCHEDULE DAY 34\", Blank Schedule Type Limits Name input -- will not be validated.\n   ** Warning ** ProcessScheduleInput: Schedule:Day:Interval=\"SCHEDULE DAY 35\", Blank Schedule Type Limits Name input -- will not be validated.\n   ** Warning ** ProcessScheduleInput: Schedule:Day:Interval=\"SCHEDULE DAY 36\", Blank Schedule Type Limits Name input -- will not be validated.\n   ** Warning ** ProcessScheduleInput: Schedule:Day:Interval=\"SCHEDULE DAY 37\", Blank Schedule Type Limits Name input -- will not be validated.\n   ** Warning ** ProcessScheduleInput: Schedule:Day:Interval=\"SCHEDULE DAY 38\", Blank Schedule Type Limits Name input -- will not be validated.\n   ** Warning ** ProcessScheduleInput: Schedule:Day:Interval=\"SCHEDULE DAY 39\", Blank Schedule Type Limits Name input -- will not be validated.\n   ** Warning ** ProcessScheduleInput: Schedule:Day:Interval=\"SCHEDULE DAY 40\", Blank Schedule Type Limits Name input -- will not be validated.\n   ** Warning ** ProcessScheduleInput: Schedule:Day:Interval=\"SCHEDULE DAY 41\", Blank Schedule Type Limits Name input -- will not be validated.\n   ** Warning ** ProcessScheduleInput: Schedule:Day:Interval=\"SCHEDULE DAY 42\", Blank Schedule Type Limits Name input -- will not be validated.\n   ** Warning ** ProcessScheduleInput: Schedule:Day:Interval=\"SCHEDULE DAY 43\", Blank Schedule Type Limits Name input -- will not be validated.\n   ** Warning ** ProcessScheduleInput: Schedule:Day:Interval=\"SCHEDULE DAY 44\", Blank Schedule Type Limits Name input -- will not be validated.\n   ** Warning ** ProcessScheduleInput: Schedule:Day:Interval=\"SCHEDULE DAY 45\", Blank Schedule Type Limits Name input -- will not be validated.\n   ** Warning ** ProcessScheduleInput: Schedule:Day:Interval=\"SCHEDULE DAY 46\", Blank Schedule Type Limits Name input -- will not be validated.\n   ** Warning ** ProcessScheduleInput: Schedule:Day:Interval=\"SCHEDULE DAY 47\", Blank Schedule Type Limits Name input -- will not be validated.\n   ** Warning ** ProcessScheduleInput: Schedule:Day:Interval=\"SCHEDULE DAY 48\", Blank Schedule Type Limits Name input -- will not be validated.\n   ** Warning ** ProcessScheduleInput: Schedule:Day:Interval=\"SCHEDULE DAY 49\", Blank Schedule Type Limits Name input -- will not be validated.\n   ** Warning ** ProcessScheduleInput: Schedule:Day:Interval=\"SCHEDULE DAY 50\", Blank Schedule Type Limits Name input -- will not be validated.\n   ** Warning ** ProcessScheduleInput: Schedule:Day:Interval=\"SCHEDULE DAY 51\", Blank Schedule Type Limits Name input -- will not be validated.\n   ** Warning ** ProcessScheduleInput: Schedule:Day:Interval=\"SCHEDULE DAY 52\", Blank Schedule Type Limits Name input -- will not be validated.\n   ** Warning ** ProcessScheduleInput: Schedule:Day:Interval=\"SCHEDULE DAY 53\", Blank Schedule Type Limits Name input -- will not be validated.\n   ** Warning ** ProcessScheduleInput: Schedule:Day:Interval=\"SCHEDULE DAY 54\", Blank Schedule Type Limits Name input -- will not be validated.\n   ** Warning ** ProcessScheduleInput: Schedule:Day:Interval=\"SCHEDULE DAY 55\", Blank Schedule Type Limits Name input -- will not be validated.\n   ** Warning ** ProcessScheduleInput: Schedule:Day:Interval=\"SCHEDULE DAY 56\", Blank Schedule Type Limits Name input -- will not be validated.\n   ** Warning ** ProcessScheduleInput: Schedule:Day:Interval=\"SCHEDULE DAY 57\", Blank Schedule Type Limits Name input -- will not be validated.\n   ** Warning ** ProcessScheduleInput: Schedule:Day:Interval=\"SCHEDULE DAY 58\", Blank Schedule Type Limits Name input -- will not be validated.\n   ** Warning ** ProcessScheduleInput: Schedule:Day:Interval=\"SCHEDULE DAY 59\", Blank Schedule Type Limits Name input -- will not be validated.\n   ** Warning ** ProcessScheduleInput: Schedule:Day:Interval=\"SCHEDULE DAY 60\", Blank Schedule Type Limits Name input -- will not be validated.\n   ** Warning ** ProcessScheduleInput: Schedule:Day:Interval=\"SCHEDULE DAY 61\", Blank Schedule Type Limits Name input -- will not be validated.\n   ** Warning ** ProcessScheduleInput: Schedule:Day:Interval=\"SCHEDULE DAY 62\", Blank Schedule Type Limits Name input -- will not be validated.\n   ** Warning ** ProcessScheduleInput: Schedule:Day:Interval=\"SCHEDULE DAY 63\", Blank Schedule Type Limits Name input -- will not be validated.\n   ** Warning ** ProcessScheduleInput: Schedule:Day:Interval=\"SCHEDULE DAY 64\", Blank Schedule Type Limits Name input -- will not be validated.\n   ** Warning ** ProcessScheduleInput: Schedule:Day:Interval=\"SCHEDULE DAY 65\", Blank Schedule Type Limits Name input -- will not be validated.\n   ** Warning ** ProcessScheduleInput: Schedule:Day:Interval=\"SCHEDULE DAY 66\", Blank Schedule Type Limits Name input -- will not be validated.\n   ** Warning ** ProcessScheduleInput: Schedule:Day:Interval=\"SCHEDULE DAY 67\", Blank Schedule Type Limits Name input -- will not be validated.\n   ** Warning ** ProcessScheduleInput: Schedule:Day:Interval=\"SCHEDULE DAY 68\", Blank Schedule Type Limits Name input -- will not be validated.\n   ** Warning ** ProcessScheduleInput: Schedule:Day:Interval=\"SCHEDULE DAY 69\", Blank Schedule Type Limits Name input -- will not be validated.\n   ** Warning ** ProcessScheduleInput: Schedule:Day:Interval=\"SCHEDULE DAY 70\", Blank Schedule Type Limits Name input -- will not be validated.\n   ** Warning ** ProcessScheduleInput: Schedule:Day:Interval=\"SCHEDULE DAY 71\", Blank Schedule Type Limits Name input -- will not be validated.\n   ** Warning ** ProcessScheduleInput: Schedule:Day:Interval=\"SCHEDULE DAY 72\", Blank Schedule Type Limits Name input -- will not be validated.\n   ** Warning ** ProcessScheduleInput: Schedule:Day:Interval=\"SCHEDULE DAY 73\", Blank Schedule Type Limits Name input -- will not be validated.\n   ** Warning ** ProcessScheduleInput: Schedule:Day:Interval=\"SCHEDULE DAY 74\", Blank Schedule Type Limits Name input -- will not be validated.\n   ** Warning ** ProcessScheduleInput: Schedule:Day:Interval=\"SCHEDULE DAY 75\", Blank Schedule Type Limits Name input -- will not be validated.\n   ** Warning ** ProcessScheduleInput: Schedule:Day:Interval=\"SCHEDULE DAY 76\", Blank Schedule Type Limits Name input -- will not be validated.\n   ** Warning ** ProcessScheduleInput: Schedule:Day:Interval=\"SCHEDULE DAY 77\", Blank Schedule Type Limits Name input -- will not be validated.\n   ** Warning ** ProcessScheduleInput: Schedule:Day:Interval=\"SCHEDULE DAY 78\", Blank Schedule Type Limits Name input -- will not be validated.\n   ** Warning ** ProcessScheduleInput: Schedule:Day:Interval=\"SCHEDULE DAY 79\", Blank Schedule Type Limits Name input -- will not be validated.\n   ** Warning ** ProcessScheduleInput: Schedule:Day:Interval=\"SCHEDULE DAY 8\", Blank Schedule Type Limits Name input -- will not be validated.\n   ** Warning ** ProcessScheduleInput: Schedule:Day:Interval=\"SCHEDULE DAY 80\", Blank Schedule Type Limits Name input -- will not be validated.\n   ** Warning ** ProcessScheduleInput: Schedule:Day:Interval=\"SCHEDULE DAY 81\", Blank Schedule Type Limits Name input -- will not be validated.\n   ** Warning ** ProcessScheduleInput: Schedule:Day:Interval=\"SCHEDULE DAY 82\", Blank Schedule Type Limits Name input -- will not be validated.\n   ** Warning ** ProcessScheduleInput: Schedule:Day:Interval=\"SCHEDULE DAY 83\", Blank Schedule Type Limits Name input -- will not be validated.\n   ** Warning ** ProcessScheduleInput: Schedule:Day:Interval=\"SCHEDULE DAY 84\", Blank Schedule Type Limits Name input -- will not be validated.\n   ** Warning ** ProcessScheduleInput: Schedule:Day:Interval=\"SCHEDULE DAY 85\", Blank Schedule Type Limits Name input -- will not be validated.\n   ** Warning ** ProcessScheduleInput: Schedule:Day:Interval=\"SCHEDULE DAY 86\", Blank Schedule Type Limits Name input -- will not be validated.\n   ** Warning ** ProcessScheduleInput: Schedule:Day:Interval=\"SCHEDULE DAY 87\", Blank Schedule Type Limits Name input -- will not be validated.\n   ** Warning ** ProcessScheduleInput: Schedule:Day:Interval=\"SCHEDULE DAY 88\", Blank Schedule Type Limits Name input -- will not be validated.\n   ** Warning ** ProcessScheduleInput: Schedule:Day:Interval=\"SCHEDULE DAY 89\", Blank Schedule Type Limits Name input -- will not be validated.\n   ** Warning ** ProcessScheduleInput: Schedule:Day:Interval=\"SCHEDULE DAY 9\", Blank Schedule Type Limits Name input -- will not be validated.\n   ** Warning ** ProcessScheduleInput: Schedule:Day:Interval=\"SCHEDULE DAY 90\", Blank Schedule Type Limits Name input -- will not be validated.\n   ** Warning ** ProcessScheduleInput: Schedule:Day:Interval=\"SCHEDULE DAY 91\", Blank Schedule Type Limits Name input -- will not be validated.\n   ** Warning ** ProcessScheduleInput: Schedule:Day:Interval=\"SCHEDULE DAY 92\", Blank Schedule Type Limits Name input -- will not be validated.\n   ** Warning ** ProcessScheduleInput: Schedule:Day:Interval=\"SCHEDULE DAY 93\", Blank Schedule Type Limits Name input -- will not be validated.\n   ** Warning ** ProcessScheduleInput: Schedule:Day:Interval=\"SCHEDULE DAY 94\", Blank Schedule Type Limits Name input -- will not be validated.\n   ** Warning ** ProcessScheduleInput: Schedule:Day:Interval=\"SCHEDULE DAY 95\", Blank Schedule Type Limits Name input -- will not be validated.\n   ** Warning ** ProcessScheduleInput: Schedule:Day:Interval=\"SCHEDULE DAY 96\", Blank Schedule Type Limits Name input -- will not be validated.\n   ** Warning ** ProcessScheduleInput: Schedule:Day:Interval=\"SCHEDULE DAY 97\", Blank Schedule Type Limits Name input -- will not be validated.\n   ** Warning ** ProcessScheduleInput: Schedule:Day:Interval=\"SCHEDULE DAY 98\", Blank Schedule Type Limits Name input -- will not be validated.\n   ** Warning ** ProcessScheduleInput: Schedule:Day:Interval=\"SCHEDULE DAY 99\", Blank Schedule Type Limits Name input -- will not be validated.\n   ** Warning ** ProcessScheduleInput: Schedule:Year=\"ECONOMIZER MAX OA FRACTION 100 PCT\", Blank Schedule Type Limits Name input -- will not be validated.\n   ** Warning ** ProcessScheduleInput: Schedule:Year=\"SCHEDULE RULESET 10\", Blank Schedule Type Limits Name input -- will not be validated.\n   ** Warning ** ProcessScheduleInput: Schedule:Year=\"SCHEDULE RULESET 100\", Blank Schedule Type Limits Name input -- will not be validated.\n   ** Warning ** ProcessScheduleInput: Schedule:Year=\"SCHEDULE RULESET 101\", Blank Schedule Type Limits Name input -- will not be validated.\n   ** Warning ** ProcessScheduleInput: Schedule:Year=\"SCHEDULE RULESET 102\", Blank Schedule Type Limits Name input -- will not be validated.\n   ** Warning ** ProcessScheduleInput: Schedule:Year=\"SCHEDULE RULESET 103\", Blank Schedule Type Limits Name input -- will not be validated.\n   ** Warning ** ProcessScheduleInput: Schedule:Year=\"SCHEDULE RULESET 104\", Blank Schedule Type Limits Name input -- will not be validated.\n   ** Warning ** ProcessScheduleInput: Schedule:Year=\"SCHEDULE RULESET 105\", Blank Schedule Type Limits Name input -- will not be validated.\n   ** Warning ** ProcessScheduleInput: Schedule:Year=\"SCHEDULE RULESET 106\", Blank Schedule Type Limits Name input -- will not be validated.\n   ** Warning ** ProcessScheduleInput: Schedule:Year=\"SCHEDULE RULESET 107\", Blank Schedule Type Limits Name input -- will not be validated.\n   ** Warning ** ProcessScheduleInput: Schedule:Year=\"SCHEDULE RULESET 108\", Blank Schedule Type Limits Name input -- will not be validated.\n   ** Warning ** ProcessScheduleInput: Schedule:Year=\"SCHEDULE RULESET 109\", Blank Schedule Type Limits Name input -- will not be validated.\n   ** Warning ** ProcessScheduleInput: Schedule:Year=\"SCHEDULE RULESET 11\", Blank Schedule Type Limits Name input -- will not be validated.\n   ** Warning ** ProcessScheduleInput: Schedule:Year=\"SCHEDULE RULESET 110\", Blank Schedule Type Limits Name input -- will not be validated.\n   ** Warning ** ProcessScheduleInput: Schedule:Year=\"SCHEDULE RULESET 111\", Blank Schedule Type Limits Name input -- will not be validated.\n   ** Warning ** ProcessScheduleInput: Schedule:Year=\"SCHEDULE RULESET 112\", Blank Schedule Type Limits Name input -- will not be validated.\n   ** Warning ** ProcessScheduleInput: Schedule:Year=\"SCHEDULE RULESET 113\", Blank Schedule Type Limits Name input -- will not be validated.\n   ** Warning ** ProcessScheduleInput: Schedule:Year=\"SCHEDULE RULESET 114\", Blank Schedule Type Limits Name input -- will not be validated.\n   ** Warning ** ProcessScheduleInput: Schedule:Year=\"SCHEDULE RULESET 115\", Blank Schedule Type Limits Name input -- will not be validated.\n   ** Warning ** ProcessScheduleInput: Schedule:Year=\"SCHEDULE RULESET 116\", Blank Schedule Type Limits Name input -- will not be validated.\n   ** Warning ** ProcessScheduleInput: Schedule:Year=\"SCHEDULE RULESET 117\", Blank Schedule Type Limits Name input -- will not be validated.\n   ** Warning ** ProcessScheduleInput: Schedule:Year=\"SCHEDULE RULESET 118\", Blank Schedule Type Limits Name input -- will not be validated.\n   ** Warning ** ProcessScheduleInput: Schedule:Year=\"SCHEDULE RULESET 119\", Blank Schedule Type Limits Name input -- will not be validated.\n   ** Warning ** ProcessScheduleInput: Schedule:Year=\"SCHEDULE RULESET 12\", Blank Schedule Type Limits Name input -- will not be validated.\n   ** Warning ** ProcessScheduleInput: Schedule:Year=\"SCHEDULE RULESET 120\", Blank Schedule Type Limits Name input -- will not be validated.\n   ** Warning ** ProcessScheduleInput: Schedule:Year=\"SCHEDULE RULESET 121\", Blank Schedule Type Limits Name input -- will not be validated.\n   ** Warning ** ProcessScheduleInput: Schedule:Year=\"SCHEDULE RULESET 122\", Blank Schedule Type Limits Name input -- will not be validated.\n   ** Warning ** ProcessScheduleInput: Schedule:Year=\"SCHEDULE RULESET 123\", Blank Schedule Type Limits Name input -- will not be validated.\n   ** Warning ** ProcessScheduleInput: Schedule:Year=\"SCHEDULE RULESET 124\", Blank Schedule Type Limits Name input -- will not be validated.\n   ** Warning ** ProcessScheduleInput: Schedule:Year=\"SCHEDULE RULESET 125\", Blank Schedule Type Limits Name input -- will not be validated.\n   ** Warning ** ProcessScheduleInput: Schedule:Year=\"SCHEDULE RULESET 126\", Blank Schedule Type Limits Name input -- will not be validated.\n   ** Warning ** ProcessScheduleInput: Schedule:Year=\"SCHEDULE RULESET 127\", Blank Schedule Type Limits Name input -- will not be validated.\n   ** Warning ** ProcessScheduleInput: Schedule:Year=\"SCHEDULE RULESET 128\", Blank Schedule Type Limits Name input -- will not be validated.\n   ** Warning ** ProcessScheduleInput: Schedule:Year=\"SCHEDULE RULESET 129\", Blank Schedule Type Limits Name input -- will not be validated.\n   ** Warning ** ProcessScheduleInput: Schedule:Year=\"SCHEDULE RULESET 13\", Blank Schedule Type Limits Name input -- will not be validated.\n   ** Warning ** ProcessScheduleInput: Schedule:Year=\"SCHEDULE RULESET 130\", Blank Schedule Type Limits Name input -- will not be validated.\n   ** Warning ** ProcessScheduleInput: Schedule:Year=\"SCHEDULE RULESET 131\", Blank Schedule Type Limits Name input -- will not be validated.\n   ** Warning ** ProcessScheduleInput: Schedule:Year=\"SCHEDULE RULESET 132\", Blank Schedule Type Limits Name input -- will not be validated.\n   ** Warning ** ProcessScheduleInput: Schedule:Year=\"SCHEDULE RULESET 133\", Blank Schedule Type Limits Name input -- will not be validated.\n   ** Warning ** ProcessScheduleInput: Schedule:Year=\"SCHEDULE RULESET 134\", Blank Schedule Type Limits Name input -- will not be validated.\n   ** Warning ** ProcessScheduleInput: Schedule:Year=\"SCHEDULE RULESET 135\", Blank Schedule Type Limits Name input -- will not be validated.\n   ** Warning ** ProcessScheduleInput: Schedule:Year=\"SCHEDULE RULESET 136\", Blank Schedule Type Limits Name input -- will not be validated.\n   ** Warning ** ProcessScheduleInput: Schedule:Year=\"SCHEDULE RULESET 137\", Blank Schedule Type Limits Name input -- will not be validated.\n   ** Warning ** ProcessScheduleInput: Schedule:Year=\"SCHEDULE RULESET 138\", Blank Schedule Type Limits Name input -- will not be validated.\n   ** Warning ** ProcessScheduleInput: Schedule:Year=\"SCHEDULE RULESET 139\", Blank Schedule Type Limits Name input -- will not be validated.\n   ** Warning ** ProcessScheduleInput: Schedule:Year=\"SCHEDULE RULESET 14\", Blank Schedule Type Limits Name input -- will not be validated.\n   ** Warning ** ProcessScheduleInput: Schedule:Year=\"SCHEDULE RULESET 140\", Blank Schedule Type Limits Name input -- will not be validated.\n   ** Warning ** ProcessScheduleInput: Schedule:Year=\"SCHEDULE RULESET 141\", Blank Schedule Type Limits Name input -- will not be validated.\n   ** Warning ** ProcessScheduleInput: Schedule:Year=\"SCHEDULE RULESET 142\", Blank Schedule Type Limits Name input -- will not be validated.\n   ** Warning ** ProcessScheduleInput: Schedule:Year=\"SCHEDULE RULESET 143\", Blank Schedule Type Limits Name input -- will not be validated.\n   ** Warning ** ProcessScheduleInput: Schedule:Year=\"SCHEDULE RULESET 144\", Blank Schedule Type Limits Name input -- will not be validated.\n   ** Warning ** ProcessScheduleInput: Schedule:Year=\"SCHEDULE RULESET 145\", Blank Schedule Type Limits Name input -- will not be validated.\n   ** Warning ** ProcessScheduleInput: Schedule:Year=\"SCHEDULE RULESET 146\", Blank Schedule Type Limits Name input -- will not be validated.\n   ** Warning ** ProcessScheduleInput: Schedule:Year=\"SCHEDULE RULESET 147\", Blank Schedule Type Limits Name input -- will not be validated.\n   ** Warning ** ProcessScheduleInput: Schedule:Year=\"SCHEDULE RULESET 148\", Blank Schedule Type Limits Name input -- will not be validated.\n   ** Warning ** ProcessScheduleInput: Schedule:Year=\"SCHEDULE RULESET 149\", Blank Schedule Type Limits Name input -- will not be validated.\n   ** Warning ** ProcessScheduleInput: Schedule:Year=\"SCHEDULE RULESET 15\", Blank Schedule Type Limits Name input -- will not be validated.\n   ** Warning ** ProcessScheduleInput: Schedule:Year=\"SCHEDULE RULESET 150\", Blank Schedule Type Limits Name input -- will not be validated.\n   ** Warning ** ProcessScheduleInput: Schedule:Year=\"SCHEDULE RULESET 151\", Blank Schedule Type Limits Name input -- will not be validated.\n   ** Warning ** ProcessScheduleInput: Schedule:Year=\"SCHEDULE RULESET 152\", Blank Schedule Type Limits Name input -- will not be validated.\n   ** Warning ** ProcessScheduleInput: Schedule:Year=\"SCHEDULE RULESET 153\", Blank Schedule Type Limits Name input -- will not be validated.\n   ** Warning ** ProcessScheduleInput: Schedule:Year=\"SCHEDULE RULESET 154\", Blank Schedule Type Limits Name input -- will not be validated.\n   ** Warning ** ProcessScheduleInput: Schedule:Year=\"SCHEDULE RULESET 155\", Blank Schedule Type Limits Name input -- will not be validated.\n   ** Warning ** ProcessScheduleInput: Schedule:Year=\"SCHEDULE RULESET 156\", Blank Schedule Type Limits Name input -- will not be validated.\n   ** Warning ** ProcessScheduleInput: Schedule:Year=\"SCHEDULE RULESET 157\", Blank Schedule Type Limits Name input -- will not be validated.\n   ** Warning ** ProcessScheduleInput: Schedule:Year=\"SCHEDULE RULESET 158\", Blank Schedule Type Limits Name input -- will not be validated.\n   ** Warning ** ProcessScheduleInput: Schedule:Year=\"SCHEDULE RULESET 159\", Blank Schedule Type Limits Name input -- will not be validated.\n   ** Warning ** ProcessScheduleInput: Schedule:Year=\"SCHEDULE RULESET 16\", Blank Schedule Type Limits Name input -- will not be validated.\n   ** Warning ** ProcessScheduleInput: Schedule:Year=\"SCHEDULE RULESET 160\", Blank Schedule Type Limits Name input -- will not be validated.\n   ** Warning ** ProcessScheduleInput: Schedule:Year=\"SCHEDULE RULESET 161\", Blank Schedule Type Limits Name input -- will not be validated.\n   ** Warning ** ProcessScheduleInput: Schedule:Year=\"SCHEDULE RULESET 162\", Blank Schedule Type Limits Name input -- will not be validated.\n   ** Warning ** ProcessScheduleInput: Schedule:Year=\"SCHEDULE RULESET 163\", Blank Schedule Type Limits Name input -- will not be validated.\n   ** Warning ** ProcessScheduleInput: Schedule:Year=\"SCHEDULE RULESET 164\", Blank Schedule Type Limits Name input -- will not be validated.\n   ** Warning ** ProcessScheduleInput: Schedule:Year=\"SCHEDULE RULESET 165\", Blank Schedule Type Limits Name input -- will not be validated.\n   ** Warning ** ProcessScheduleInput: Schedule:Year=\"SCHEDULE RULESET 166\", Blank Schedule Type Limits Name input -- will not be validated.\n   ** Warning ** ProcessScheduleInput: Schedule:Year=\"SCHEDULE RULESET 167\", Blank Schedule Type Limits Name input -- will not be validated.\n   ** Warning ** ProcessScheduleInput: Schedule:Year=\"SCHEDULE RULESET 168\", Blank Schedule Type Limits Name input -- will not be validated.\n   ** Warning ** ProcessScheduleInput: Schedule:Year=\"SCHEDULE RULESET 169\", Blank Schedule Type Limits Name input -- will not be validated.\n   ** Warning ** ProcessScheduleInput: Schedule:Year=\"SCHEDULE RULESET 17\", Blank Schedule Type Limits Name input -- will not be validated.\n   ** Warning ** ProcessScheduleInput: Schedule:Year=\"SCHEDULE RULESET 170\", Blank Schedule Type Limits Name input -- will not be validated.\n   ** Warning ** ProcessScheduleInput: Schedule:Year=\"SCHEDULE RULESET 171\", Blank Schedule Type Limits Name input -- will not be validated.\n   ** Warning ** ProcessScheduleInput: Schedule:Year=\"SCHEDULE RULESET 172\", Blank Schedule Type Limits Name input -- will not be validated.\n   ** Warning ** ProcessScheduleInput: Schedule:Year=\"SCHEDULE RULESET 173\", Blank Schedule Type Limits Name input -- will not be validated.\n   ** Warning ** ProcessScheduleInput: Schedule:Year=\"SCHEDULE RULESET 174\", Blank Schedule Type Limits Name input -- will not be validated.\n   ** Warning ** ProcessScheduleInput: Schedule:Year=\"SCHEDULE RULESET 175\", Blank Schedule Type Limits Name input -- will not be validated.\n   ** Warning ** ProcessScheduleInput: Schedule:Year=\"SCHEDULE RULESET 176\", Blank Schedule Type Limits Name input -- will not be validated.\n   ** Warning ** ProcessScheduleInput: Schedule:Year=\"SCHEDULE RULESET 177\", Blank Schedule Type Limits Name input -- will not be validated.\n   ** Warning ** ProcessScheduleInput: Schedule:Year=\"SCHEDULE RULESET 178\", Blank Schedule Type Limits Name input -- will not be validated.\n   ** Warning ** ProcessScheduleInput: Schedule:Year=\"SCHEDULE RULESET 179\", Blank Schedule Type Limits Name input -- will not be validated.\n   ** Warning ** ProcessScheduleInput: Schedule:Year=\"SCHEDULE RULESET 18\", Blank Schedule Type Limits Name input -- will not be validated.\n   ** Warning ** ProcessScheduleInput: Schedule:Year=\"SCHEDULE RULESET 180\", Blank Schedule Type Limits Name input -- will not be validated.\n   ** Warning ** ProcessScheduleInput: Schedule:Year=\"SCHEDULE RULESET 181\", Blank Schedule Type Limits Name input -- will not be validated.\n   ** Warning ** ProcessScheduleInput: Schedule:Year=\"SCHEDULE RULESET 182\", Blank Schedule Type Limits Name input -- will not be validated.\n   ** Warning ** ProcessScheduleInput: Schedule:Year=\"SCHEDULE RULESET 183\", Blank Schedule Type Limits Name input -- will not be validated.\n   ** Warning ** ProcessScheduleInput: Schedule:Year=\"SCHEDULE RULESET 184\", Blank Schedule Type Limits Name input -- will not be validated.\n   ** Warning ** ProcessScheduleInput: Schedule:Year=\"SCHEDULE RULESET 185\", Blank Schedule Type Limits Name input -- will not be validated.\n   ** Warning ** ProcessScheduleInput: Schedule:Year=\"SCHEDULE RULESET 186\", Blank Schedule Type Limits Name input -- will not be validated.\n   ** Warning ** ProcessScheduleInput: Schedule:Year=\"SCHEDULE RULESET 187\", Blank Schedule Type Limits Name input -- will not be validated.\n   ** Warning ** ProcessScheduleInput: Schedule:Year=\"SCHEDULE RULESET 188\", Blank Schedule Type Limits Name input -- will not be validated.\n   ** Warning ** ProcessScheduleInput: Schedule:Year=\"SCHEDULE RULESET 189\", Blank Schedule Type Limits Name input -- will not be validated.\n   ** Warning ** ProcessScheduleInput: Schedule:Year=\"SCHEDULE RULESET 19\", Blank Schedule Type Limits Name input -- will not be validated.\n   ** Warning ** ProcessScheduleInput: Schedule:Year=\"SCHEDULE RULESET 190\", Blank Schedule Type Limits Name input -- will not be validated.\n   ** Warning ** ProcessScheduleInput: Schedule:Year=\"SCHEDULE RULESET 191\", Blank Schedule Type Limits Name input -- will not be validated.\n   ** Warning ** ProcessScheduleInput: Schedule:Year=\"SCHEDULE RULESET 192\", Blank Schedule Type Limits Name input -- will not be validated.\n   ** Warning ** ProcessScheduleInput: Schedule:Year=\"SCHEDULE RULESET 193\", Blank Schedule Type Limits Name input -- will not be validated.\n   ** Warning ** ProcessScheduleInput: Schedule:Year=\"SCHEDULE RULESET 194\", Blank Schedule Type Limits Name input -- will not be validated.\n   ** Warning ** ProcessScheduleInput: Schedule:Year=\"SCHEDULE RULESET 195\", Blank Schedule Type Limits Name input -- will not be validated.\n   ** Warning ** ProcessScheduleInput: Schedule:Year=\"SCHEDULE RULESET 196\", Blank Schedule Type Limits Name input -- will not be validated.\n   ** Warning ** ProcessScheduleInput: Schedule:Year=\"SCHEDULE RULESET 197\", Blank Schedule Type Limits Name input -- will not be validated.\n   ** Warning ** ProcessScheduleInput: Schedule:Year=\"SCHEDULE RULESET 198\", Blank Schedule Type Limits Name input -- will not be validated.\n   ** Warning ** ProcessScheduleInput: Schedule:Year=\"SCHEDULE RULESET 199\", Blank Schedule Type Limits Name input -- will not be validated.\n   ** Warning ** ProcessScheduleInput: Schedule:Year=\"SCHEDULE RULESET 20\", Blank Schedule Type Limits Name input -- will not be validated.\n   ** Warning ** ProcessScheduleInput: Schedule:Year=\"SCHEDULE RULESET 200\", Blank Schedule Type Limits Name input -- will not be validated.\n   ** Warning ** ProcessScheduleInput: Schedule:Year=\"SCHEDULE RULESET 201\", Blank Schedule Type Limits Name input -- will not be validated.\n   ** Warning ** ProcessScheduleInput: Schedule:Year=\"SCHEDULE RULESET 202\", Blank Schedule Type Limits Name input -- will not be validated.\n   ** Warning ** ProcessScheduleInput: Schedule:Year=\"SCHEDULE RULESET 203\", Blank Schedule Type Limits Name input -- will not be validated.\n   ** Warning ** ProcessScheduleInput: Schedule:Year=\"SCHEDULE RULESET 204\", Blank Schedule Type Limits Name input -- will not be validated.\n   ** Warning ** ProcessScheduleInput: Schedule:Year=\"SCHEDULE RULESET 205\", Blank Schedule Type Limits Name input -- will not be validated.\n   ** Warning ** ProcessScheduleInput: Schedule:Year=\"SCHEDULE RULESET 206\", Blank Schedule Type Limits Name input -- will not be validated.\n   ** Warning ** ProcessScheduleInput: Schedule:Year=\"SCHEDULE RULESET 207\", Blank Schedule Type Limits Name input -- will not be validated.\n   ** Warning ** ProcessScheduleInput: Schedule:Year=\"SCHEDULE RULESET 208\", Blank Schedule Type Limits Name input -- will not be validated.\n   ** Warning ** ProcessScheduleInput: Schedule:Year=\"SCHEDULE RULESET 209\", Blank Schedule Type Limits Name input -- will not be validated.\n   ** Warning ** ProcessScheduleInput: Schedule:Year=\"SCHEDULE RULESET 21\", Blank Schedule Type Limits Name input -- will not be validated.\n   ** Warning ** ProcessScheduleInput: Schedule:Year=\"SCHEDULE RULESET 210\", Blank Schedule Type Limits Name input -- will not be validated.\n   ** Warning ** ProcessScheduleInput: Schedule:Year=\"SCHEDULE RULESET 211\", Blank Schedule Type Limits Name input -- will not be validated.\n   ** Warning ** ProcessScheduleInput: Schedule:Year=\"SCHEDULE RULESET 212\", Blank Schedule Type Limits Name input -- will not be validated.\n   ** Warning ** ProcessScheduleInput: Schedule:Year=\"SCHEDULE RULESET 213\", Blank Schedule Type Limits Name input -- will not be validated.\n   ** Warning ** ProcessScheduleInput: Schedule:Year=\"SCHEDULE RULESET 214\", Blank Schedule Type Limits Name input -- will not be validated.\n   ** Warning ** ProcessScheduleInput: Schedule:Year=\"SCHEDULE RULESET 215\", Blank Schedule Type Limits Name input -- will not be validated.\n   ** Warning ** ProcessScheduleInput: Schedule:Year=\"SCHEDULE RULESET 216\", Blank Schedule Type Limits Name input -- will not be validated.\n   ** Warning ** ProcessScheduleInput: Schedule:Year=\"SCHEDULE RULESET 217\", Blank Schedule Type Limits Name input -- will not be validated.\n   ** Warning ** ProcessScheduleInput: Schedule:Year=\"SCHEDULE RULESET 218\", Blank Schedule Type Limits Name input -- will not be validated.\n   ** Warning ** ProcessScheduleInput: Schedule:Year=\"SCHEDULE RULESET 219\", Blank Schedule Type Limits Name input -- will not be validated.\n   ** Warning ** ProcessScheduleInput: Schedule:Year=\"SCHEDULE RULESET 22\", Blank Schedule Type Limits Name input -- will not be validated.\n   ** Warning ** ProcessScheduleInput: Schedule:Year=\"SCHEDULE RULESET 220\", Blank Schedule Type Limits Name input -- will not be validated.\n   ** Warning ** ProcessScheduleInput: Schedule:Year=\"SCHEDULE RULESET 221\", Blank Schedule Type Limits Name input -- will not be validated.\n   ** Warning ** ProcessScheduleInput: Schedule:Year=\"SCHEDULE RULESET 222\", Blank Schedule Type Limits Name input -- will not be validated.\n   ** Warning ** ProcessScheduleInput: Schedule:Year=\"SCHEDULE RULESET 223\", Blank Schedule Type Limits Name input -- will not be validated.\n   ** Warning ** ProcessScheduleInput: Schedule:Year=\"SCHEDULE RULESET 224\", Blank Schedule Type Limits Name input -- will not be validated.\n   ** Warning ** ProcessScheduleInput: Schedule:Year=\"SCHEDULE RULESET 225\", Blank Schedule Type Limits Name input -- will not be validated.\n   ** Warning ** ProcessScheduleInput: Schedule:Year=\"SCHEDULE RULESET 226\", Blank Schedule Type Limits Name input -- will not be validated.\n   ** Warning ** ProcessScheduleInput: Schedule:Year=\"SCHEDULE RULESET 227\", Blank Schedule Type Limits Name input -- will not be validated.\n   ** Warning ** ProcessScheduleInput: Schedule:Year=\"SCHEDULE RULESET 228\", Blank Schedule Type Limits Name input -- will not be validated.\n   ** Warning ** ProcessScheduleInput: Schedule:Year=\"SCHEDULE RULESET 229\", Blank Schedule Type Limits Name input -- will not be validated.\n   ** Warning ** ProcessScheduleInput: Schedule:Year=\"SCHEDULE RULESET 23\", Blank Schedule Type Limits Name input -- will not be validated.\n   ** Warning ** ProcessScheduleInput: Schedule:Year=\"SCHEDULE RULESET 230\", Blank Schedule Type Limits Name input -- will not be validated.\n   ** Warning ** ProcessScheduleInput: Schedule:Year=\"SCHEDULE RULESET 231\", Blank Schedule Type Limits Name input -- will not be validated.\n   ** Warning ** ProcessScheduleInput: Schedule:Year=\"SCHEDULE RULESET 232\", Blank Schedule Type Limits Name input -- will not be validated.\n   ** Warning ** ProcessScheduleInput: Schedule:Year=\"SCHEDULE RULESET 233\", Blank Schedule Type Limits Name input -- will not be validated.\n   ** Warning ** ProcessScheduleInput: Schedule:Year=\"SCHEDULE RULESET 234\", Blank Schedule Type Limits Name input -- will not be validated.\n   ** Warning ** ProcessScheduleInput: Schedule:Year=\"SCHEDULE RULESET 235\", Blank Schedule Type Limits Name input -- will not be validated.\n   ** Warning ** ProcessScheduleInput: Schedule:Year=\"SCHEDULE RULESET 236\", Blank Schedule Type Limits Name input -- will not be validated.\n   ** Warning ** ProcessScheduleInput: Schedule:Year=\"SCHEDULE RULESET 237\", Blank Schedule Type Limits Name input -- will not be validated.\n   ** Warning ** ProcessScheduleInput: Schedule:Year=\"SCHEDULE RULESET 238\", Blank Schedule Type Limits Name input -- will not be validated.\n   ** Warning ** ProcessScheduleInput: Schedule:Year=\"SCHEDULE RULESET 239\", Blank Schedule Type Limits Name input -- will not be validated.\n   ** Warning ** ProcessScheduleInput: Schedule:Year=\"SCHEDULE RULESET 24\", Blank Schedule Type Limits Name input -- will not be validated.\n   ** Warning ** ProcessScheduleInput: Schedule:Year=\"SCHEDULE RULESET 240\", Blank Schedule Type Limits Name input -- will not be validated.\n   ** Warning ** ProcessScheduleInput: Schedule:Year=\"SCHEDULE RULESET 241\", Blank Schedule Type Limits Name input -- will not be validated.\n   ** Warning ** ProcessScheduleInput: Schedule:Year=\"SCHEDULE RULESET 242\", Blank Schedule Type Limits Name input -- will not be validated.\n   ** Warning ** ProcessScheduleInput: Schedule:Year=\"SCHEDULE RULESET 25\", Blank Schedule Type Limits Name input -- will not be validated.\n   ** Warning ** ProcessScheduleInput: Schedule:Year=\"SCHEDULE RULESET 26\", Blank Schedule Type Limits Name input -- will not be validated.\n   ** Warning ** ProcessScheduleInput: Schedule:Year=\"SCHEDULE RULESET 27\", Blank Schedule Type Limits Name input -- will not be validated.\n   ** Warning ** ProcessScheduleInput: Schedule:Year=\"SCHEDULE RULESET 28\", Blank Schedule Type Limits Name input -- will not be validated.\n   ** Warning ** ProcessScheduleInput: Schedule:Year=\"SCHEDULE RULESET 29\", Blank Schedule Type Limits Name input -- will not be validated.\n   ** Warning ** ProcessScheduleInput: Schedule:Year=\"SCHEDULE RULESET 3\", Blank Schedule Type Limits Name input -- will not be validated.\n   ** Warning ** ProcessScheduleInput: Schedule:Year=\"SCHEDULE RULESET 30\", Blank Schedule Type Limits Name input -- will not be validated.\n   ** Warning ** ProcessScheduleInput: Schedule:Year=\"SCHEDULE RULESET 31\", Blank Schedule Type Limits Name input -- will not be validated.\n   ** Warning ** ProcessScheduleInput: Schedule:Year=\"SCHEDULE RULESET 32\", Blank Schedule Type Limits Name input -- will not be validated.\n   ** Warning ** ProcessScheduleInput: Schedule:Year=\"SCHEDULE RULESET 33\", Blank Schedule Type Limits Name input -- will not be validated.\n   ** Warning ** ProcessScheduleInput: Schedule:Year=\"SCHEDULE RULESET 34\", Blank Schedule Type Limits Name input -- will not be validated.\n   ** Warning ** ProcessScheduleInput: Schedule:Year=\"SCHEDULE RULESET 35\", Blank Schedule Type Limits Name input -- will not be validated.\n   ** Warning ** ProcessScheduleInput: Schedule:Year=\"SCHEDULE RULESET 36\", Blank Schedule Type Limits Name input -- will not be validated.\n   ** Warning ** ProcessScheduleInput: Schedule:Year=\"SCHEDULE RULESET 37\", Blank Schedule Type Limits Name input -- will not be validated.\n   ** Warning ** ProcessScheduleInput: Schedule:Year=\"SCHEDULE RULESET 38\", Blank Schedule Type Limits Name input -- will not be validated.\n   ** Warning ** ProcessScheduleInput: Schedule:Year=\"SCHEDULE RULESET 39\", Blank Schedule Type Limits Name input -- will not be validated.\n   ** Warning ** ProcessScheduleInput: Schedule:Year=\"SCHEDULE RULESET 4\", Blank Schedule Type Limits Name input -- will not be validated.\n   ** Warning ** ProcessScheduleInput: Schedule:Year=\"SCHEDULE RULESET 40\", Blank Schedule Type Limits Name input -- will not be validated.\n   ** Warning ** ProcessScheduleInput: Schedule:Year=\"SCHEDULE RULESET 41\", Blank Schedule Type Limits Name input -- will not be validated.\n   ** Warning ** ProcessScheduleInput: Schedule:Year=\"SCHEDULE RULESET 42\", Blank Schedule Type Limits Name input -- will not be validated.\n   ** Warning ** ProcessScheduleInput: Schedule:Year=\"SCHEDULE RULESET 43\", Blank Schedule Type Limits Name input -- will not be validated.\n   ** Warning ** ProcessScheduleInput: Schedule:Year=\"SCHEDULE RULESET 44\", Blank Schedule Type Limits Name input -- will not be validated.\n   ** Warning ** ProcessScheduleInput: Schedule:Year=\"SCHEDULE RULESET 45\", Blank Schedule Type Limits Name input -- will not be validated.\n   ** Warning ** ProcessScheduleInput: Schedule:Year=\"SCHEDULE RULESET 46\", Blank Schedule Type Limits Name input -- will not be validated.\n   ** Warning ** ProcessScheduleInput: Schedule:Year=\"SCHEDULE RULESET 47\", Blank Schedule Type Limits Name input -- will not be validated.\n   ** Warning ** ProcessScheduleInput: Schedule:Year=\"SCHEDULE RULESET 48\", Blank Schedule Type Limits Name input -- will not be validated.\n   ** Warning ** ProcessScheduleInput: Schedule:Year=\"SCHEDULE RULESET 49\", Blank Schedule Type Limits Name input -- will not be validated.\n   ** Warning ** ProcessScheduleInput: Schedule:Year=\"SCHEDULE RULESET 5\", Blank Schedule Type Limits Name input -- will not be validated.\n   ** Warning ** ProcessScheduleInput: Schedule:Year=\"SCHEDULE RULESET 50\", Blank Schedule Type Limits Name input -- will not be validated.\n   ** Warning ** ProcessScheduleInput: Schedule:Year=\"SCHEDULE RULESET 51\", Blank Schedule Type Limits Name input -- will not be validated.\n   ** Warning ** ProcessScheduleInput: Schedule:Year=\"SCHEDULE RULESET 52\", Blank Schedule Type Limits Name input -- will not be validated.\n   ** Warning ** ProcessScheduleInput: Schedule:Year=\"SCHEDULE RULESET 53\", Blank Schedule Type Limits Name input -- will not be validated.\n   ** Warning ** ProcessScheduleInput: Schedule:Year=\"SCHEDULE RULESET 54\", Blank Schedule Type Limits Name input -- will not be validated.\n   ** Warning ** ProcessScheduleInput: Schedule:Year=\"SCHEDULE RULESET 55\", Blank Schedule Type Limits Name input -- will not be validated.\n   ** Warning ** ProcessScheduleInput: Schedule:Year=\"SCHEDULE RULESET 56\", Blank Schedule Type Limits Name input -- will not be validated.\n   ** Warning ** ProcessScheduleInput: Schedule:Year=\"SCHEDULE RULESET 57\", Blank Schedule Type Limits Name input -- will not be validated.\n   ** Warning ** ProcessScheduleInput: Schedule:Year=\"SCHEDULE RULESET 58\", Blank Schedule Type Limits Name input -- will not be validated.\n   ** Warning ** ProcessScheduleInput: Schedule:Year=\"SCHEDULE RULESET 59\", Blank Schedule Type Limits Name input -- will not be validated.\n   ** Warning ** ProcessScheduleInput: Schedule:Year=\"SCHEDULE RULESET 6\", Blank Schedule Type Limits Name input -- will not be validated.\n   ** Warning ** ProcessScheduleInput: Schedule:Year=\"SCHEDULE RULESET 60\", Blank Schedule Type Limits Name input -- will not be validated.\n   ** Warning ** ProcessScheduleInput: Schedule:Year=\"SCHEDULE RULESET 61\", Blank Schedule Type Limits Name input -- will not be validated.\n   ** Warning ** ProcessScheduleInput: Schedule:Year=\"SCHEDULE RULESET 62\", Blank Schedule Type Limits Name input -- will not be validated.\n   ** Warning ** ProcessScheduleInput: Schedule:Year=\"SCHEDULE RULESET 63\", Blank Schedule Type Limits Name input -- will not be validated.\n   ** Warning ** ProcessScheduleInput: Schedule:Year=\"SCHEDULE RULESET 64\", Blank Schedule Type Limits Name input -- will not be validated.\n   ** Warning ** ProcessScheduleInput: Schedule:Year=\"SCHEDULE RULESET 65\", Blank Schedule Type Limits Name input -- will not be validated.\n   ** Warning ** ProcessScheduleInput: Schedule:Year=\"SCHEDULE RULESET 66\", Blank Schedule Type Limits Name input -- will not be validated.\n   ** Warning ** ProcessScheduleInput: Schedule:Year=\"SCHEDULE RULESET 67\", Blank Schedule Type Limits Name input -- will not be validated.\n   ** Warning ** ProcessScheduleInput: Schedule:Year=\"SCHEDULE RULESET 68\", Blank Schedule Type Limits Name input -- will not be validated.\n   ** Warning ** ProcessScheduleInput: Schedule:Year=\"SCHEDULE RULESET 69\", Blank Schedule Type Limits Name input -- will not be validated.\n   ** Warning ** ProcessScheduleInput: Schedule:Year=\"SCHEDULE RULESET 7\", Blank Schedule Type Limits Name input -- will not be validated.\n   ** Warning ** ProcessScheduleInput: Schedule:Year=\"SCHEDULE RULESET 70\", Blank Schedule Type Limits Name input -- will not be validated.\n   ** Warning ** ProcessScheduleInput: Schedule:Year=\"SCHEDULE RULESET 71\", Blank Schedule Type Limits Name input -- will not be validated.\n   ** Warning ** ProcessScheduleInput: Schedule:Year=\"SCHEDULE RULESET 72\", Blank Schedule Type Limits Name input -- will not be validated.\n   ** Warning ** ProcessScheduleInput: Schedule:Year=\"SCHEDULE RULESET 73\", Blank Schedule Type Limits Name input -- will not be validated.\n   ** Warning ** ProcessScheduleInput: Schedule:Year=\"SCHEDULE RULESET 74\", Blank Schedule Type Limits Name input -- will not be validated.\n   ** Warning ** ProcessScheduleInput: Schedule:Year=\"SCHEDULE RULESET 75\", Blank Schedule Type Limits Name input -- will not be validated.\n   ** Warning ** ProcessScheduleInput: Schedule:Year=\"SCHEDULE RULESET 76\", Blank Schedule Type Limits Name input -- will not be validated.\n   ** Warning ** ProcessScheduleInput: Schedule:Year=\"SCHEDULE RULESET 77\", Blank Schedule Type Limits Name input -- will not be validated.\n   ** Warning ** ProcessScheduleInput: Schedule:Year=\"SCHEDULE RULESET 78\", Blank Schedule Type Limits Name input -- will not be validated.\n   ** Warning ** ProcessScheduleInput: Schedule:Year=\"SCHEDULE RULESET 79\", Blank Schedule Type Limits Name input -- will not be validated.\n   ** Warning ** ProcessScheduleInput: Schedule:Year=\"SCHEDULE RULESET 8\", Blank Schedule Type Limits Name input -- will not be validated.\n   ** Warning ** ProcessScheduleInput: Schedule:Year=\"SCHEDULE RULESET 80\", Blank Schedule Type Limits Name input -- will not be validated.\n   ** Warning ** ProcessScheduleInput: Schedule:Year=\"SCHEDULE RULESET 81\", Blank Schedule Type Limits Name input -- will not be validated.\n   ** Warning ** ProcessScheduleInput: Schedule:Year=\"SCHEDULE RULESET 82\", Blank Schedule Type Limits Name input -- will not be validated.\n   ** Warning ** ProcessScheduleInput: Schedule:Year=\"SCHEDULE RULESET 83\", Blank Schedule Type Limits Name input -- will not be validated.\n   ** Warning ** ProcessScheduleInput: Schedule:Year=\"SCHEDULE RULESET 84\", Blank Schedule Type Limits Name input -- will not be validated.\n   ** Warning ** ProcessScheduleInput: Schedule:Year=\"SCHEDULE RULESET 85\", Blank Schedule Type Limits Name input -- will not be validated.\n   ** Warning ** ProcessScheduleInput: Schedule:Year=\"SCHEDULE RULESET 86\", Blank Schedule Type Limits Name input -- will not be validated.\n   ** Warning ** ProcessScheduleInput: Schedule:Year=\"SCHEDULE RULESET 87\", Blank Schedule Type Limits Name input -- will not be validated.\n   ** Warning ** ProcessScheduleInput: Schedule:Year=\"SCHEDULE RULESET 88\", Blank Schedule Type Limits Name input -- will not be validated.\n   ** Warning ** ProcessScheduleInput: Schedule:Year=\"SCHEDULE RULESET 89\", Blank Schedule Type Limits Name input -- will not be validated.\n   ** Warning ** ProcessScheduleInput: Schedule:Year=\"SCHEDULE RULESET 9\", Blank Schedule Type Limits Name input -- will not be validated.\n   ** Warning ** ProcessScheduleInput: Schedule:Year=\"SCHEDULE RULESET 90\", Blank Schedule Type Limits Name input -- will not be validated.\n   ** Warning ** ProcessScheduleInput: Schedule:Year=\"SCHEDULE RULESET 91\", Blank Schedule Type Limits Name input -- will not be validated.\n   ** Warning ** ProcessScheduleInput: Schedule:Year=\"SCHEDULE RULESET 92\", Blank Schedule Type Limits Name input -- will not be validated.\n   ** Warning ** ProcessScheduleInput: Schedule:Year=\"SCHEDULE RULESET 93\", Blank Schedule Type Limits Name input -- will not be validated.\n   ** Warning ** ProcessScheduleInput: Schedule:Year=\"SCHEDULE RULESET 94\", Blank Schedule Type Limits Name input -- will not be validated.\n   ** Warning ** ProcessScheduleInput: Schedule:Year=\"SCHEDULE RULESET 95\", Blank Schedule Type Limits Name input -- will not be validated.\n   ** Warning ** ProcessScheduleInput: Schedule:Year=\"SCHEDULE RULESET 96\", Blank Schedule Type Limits Name input -- will not be validated.\n   ** Warning ** ProcessScheduleInput: Schedule:Year=\"SCHEDULE RULESET 97\", Blank Schedule Type Limits Name input -- will not be validated.\n   ** Warning ** ProcessScheduleInput: Schedule:Year=\"SCHEDULE RULESET 98\", Blank Schedule Type Limits Name input -- will not be validated.\n   ** Warning ** ProcessScheduleInput: Schedule:Year=\"SCHEDULE RULESET 99\", Blank Schedule Type Limits Name input -- will not be validated.\n   ** Warning ** ProcessScheduleInput: Schedule:Constant=\"ALWAYS OFF DISCRETE\", Blank Schedule Type Limits Name input -- will not be validated.\n   ** Warning ** ProcessScheduleInput: Schedule:Constant=\"ALWAYS ON CONTINUOUS\", Blank Schedule Type Limits Name input -- will not be validated.\n   ** Warning ** CheckUsedConstructions: There are 24 nominally unused constructions in input.\n   **   ~~~   ** For explicit details on each unused construction, use Output:Diagnostics,DisplayExtraWarnings;\n   ************* Beginning System Sizing Calculations\n   ** Warning ** GetDXCoils: Coil:Cooling:DX:SingleSpeed=\"COIL COOLING DX SINGLE SPEED 59 6KBTU/HR 11.0EER\", invalid\n   **   ~~~   ** ...Part Load Fraction Correlation Curve Name = DXCOOL-NECB2011-REF-COOLPLFFPLR 54 has out of range value.\n   **   ~~~   ** ...Curve maximum must be <= 1.0, curve max at PLR = 0.99 is 1.015\n   **   ~~~   ** ...Setting curve maximum to 1.0 and simulation continues.\n   ** Warning ** GetDXCoils: Coil:Cooling:DX:SingleSpeed=\"COIL COOLING DX SINGLE SPEED 56 6KBTU/HR 11.0EER\", invalid\n   **   ~~~   ** ...Part Load Fraction Correlation Curve Name = DXCOOL-NECB2011-REF-COOLPLFFPLR 51 has out of range value.\n   **   ~~~   ** ...Curve maximum must be <= 1.0, curve max at PLR = 0.99 is 1.015\n   **   ~~~   ** ...Setting curve maximum to 1.0 and simulation continues.\n   ** Warning ** GetDXCoils: Coil:Cooling:DX:SingleSpeed=\"COIL COOLING DX SINGLE SPEED 57 6KBTU/HR 11.0EER\", invalid\n   **   ~~~   ** ...Part Load Fraction Correlation Curve Name = DXCOOL-NECB2011-REF-COOLPLFFPLR 52 has out of range value.\n   **   ~~~   ** ...Curve maximum must be <= 1.0, curve max at PLR = 0.99 is 1.015\n   **   ~~~   ** ...Setting curve maximum to 1.0 and simulation continues.\n   ** Warning ** GetDXCoils: Coil:Cooling:DX:SingleSpeed=\"COIL COOLING DX SINGLE SPEED 58 10KBTU/HR 10.5EER\", invalid\n   **   ~~~   ** ...Part Load Fraction Correlation Curve Name = DXCOOL-NECB2011-REF-COOLPLFFPLR 53 has out of range value.\n   **   ~~~   ** ...Curve maximum must be <= 1.0, curve max at PLR = 0.99 is 1.015\n   **   ~~~   ** ...Setting curve maximum to 1.0 and simulation continues.\n   ** Warning ** GetDXCoils: Coil:Cooling:DX:SingleSpeed=\"COIL COOLING DX SINGLE SPEED 55 11KBTU/HR 10.2EER\", invalid\n   **   ~~~   ** ...Part Load Fraction Correlation Curve Name = DXCOOL-NECB2011-REF-COOLPLFFPLR 50 has out of range value.\n   **   ~~~   ** ...Curve maximum must be <= 1.0, curve max at PLR = 0.99 is 1.015\n   **   ~~~   ** ...Setting curve maximum to 1.0 and simulation continues.\n   ** Warning ** GetDXCoils: Coil:Cooling:DX:SingleSpeed=\"COIL COOLING DX SINGLE SPEED 63 7KBTU/HR 10.9EER\", invalid\n   **   ~~~   ** ...Part Load Fraction Correlation Curve Name = DXCOOL-NECB2011-REF-COOLPLFFPLR 59 has out of range value.\n   **   ~~~   ** ...Curve maximum must be <= 1.0, curve max at PLR = 0.99 is 1.015\n   **   ~~~   ** ...Setting curve maximum to 1.0 and simulation continues.\n   ** Warning ** GetDXCoils: Coil:Cooling:DX:SingleSpeed=\"COIL COOLING DX SINGLE SPEED 62 8KBTU/HR 10.9EER\", invalid\n   **   ~~~   ** ...Part Load Fraction Correlation Curve Name = DXCOOL-NECB2011-REF-COOLPLFFPLR 58 has out of range value.\n   **   ~~~   ** ...Curve maximum must be <= 1.0, curve max at PLR = 0.99 is 1.015\n   **   ~~~   ** ...Setting curve maximum to 1.0 and simulation continues.\n   ** Warning ** GetDXCoils: Coil:Cooling:DX:SingleSpeed=\"COIL COOLING DX SINGLE SPEED 60 10KBTU/HR 10.3EER\", invalid\n   **   ~~~   ** ...Part Load Fraction Correlation Curve Name = DXCOOL-NECB2011-REF-COOLPLFFPLR 56 has out of range value.\n   **   ~~~   ** ...Curve maximum must be <= 1.0, curve max at PLR = 0.99 is 1.015\n   **   ~~~   ** ...Setting curve maximum to 1.0 and simulation continues.\n   ** Warning ** GetDXCoils: Coil:Cooling:DX:SingleSpeed=\"COIL COOLING DX SINGLE SPEED 61 12KBTU/HR 9.9EER\", invalid\n   **   ~~~   ** ...Part Load Fraction Correlation Curve Name = DXCOOL-NECB2011-REF-COOLPLFFPLR 57 has out of range value.\n   **   ~~~   ** ...Curve maximum must be <= 1.0, curve max at PLR = 0.99 is 1.015\n   **   ~~~   ** ...Setting curve maximum to 1.0 and simulation continues.\n   ** Warning ** GetDXCoils: Coil:Cooling:DX:SingleSpeed=\"COIL COOLING DX SINGLE SPEED 77 6KBTU/HR 11.0EER\", invalid\n   **   ~~~   ** ...Part Load Fraction Correlation Curve Name = DXCOOL-NECB2011-REF-COOLPLFFPLR 74 has out of range value.\n   **   ~~~   ** ...Curve maximum must be <= 1.0, curve max at PLR = 0.99 is 1.015\n   **   ~~~   ** ...Setting curve maximum to 1.0 and simulation continues.\n   ** Warning ** GetDXCoils: Coil:Cooling:DX:SingleSpeed=\"COIL COOLING DX SINGLE SPEED 73 6KBTU/HR 11.0EER\", invalid\n   **   ~~~   ** ...Part Load Fraction Correlation Curve Name = DXCOOL-NECB2011-REF-COOLPLFFPLR 70 has out of range value.\n   **   ~~~   ** ...Curve maximum must be <= 1.0, curve max at PLR = 0.99 is 1.015\n   **   ~~~   ** ...Setting curve maximum to 1.0 and simulation continues.\n   ** Warning ** GetDXCoils: Coil:Cooling:DX:SingleSpeed=\"COIL COOLING DX SINGLE SPEED 75 6KBTU/HR 11.0EER\", invalid\n   **   ~~~   ** ...Part Load Fraction Correlation Curve Name = DXCOOL-NECB2011-REF-COOLPLFFPLR 72 has out of range value.\n   **   ~~~   ** ...Curve maximum must be <= 1.0, curve max at PLR = 0.99 is 1.015\n   **   ~~~   ** ...Setting curve maximum to 1.0 and simulation continues.\n   ** Warning ** GetDXCoils: Coil:Cooling:DX:SingleSpeed=\"COIL COOLING DX SINGLE SPEED 76 10KBTU/HR 10.4EER\", invalid\n   **   ~~~   ** ...Part Load Fraction Correlation Curve Name = DXCOOL-NECB2011-REF-COOLPLFFPLR 73 has out of range value.\n   **   ~~~   ** ...Curve maximum must be <= 1.0, curve max at PLR = 0.99 is 1.015\n   **   ~~~   ** ...Setting curve maximum to 1.0 and simulation continues.\n   ** Warning ** GetDXCoils: Coil:Cooling:DX:SingleSpeed=\"COIL COOLING DX SINGLE SPEED 74 11KBTU/HR 10.1EER\", invalid\n   **   ~~~   ** ...Part Load Fraction Correlation Curve Name = DXCOOL-NECB2011-REF-COOLPLFFPLR 71 has out of range value.\n   **   ~~~   ** ...Curve maximum must be <= 1.0, curve max at PLR = 0.99 is 1.015\n   **   ~~~   ** ...Setting curve maximum to 1.0 and simulation continues.\n   ** Warning ** GetDXCoils: Coil:Cooling:DX:SingleSpeed=\"COIL COOLING DX SINGLE SPEED 81 8KBTU/HR 10.9EER\", invalid\n   **   ~~~   ** ...Part Load Fraction Correlation Curve Name = DXCOOL-NECB2011-REF-COOLPLFFPLR 79 has out of range value.\n   **   ~~~   ** ...Curve maximum must be <= 1.0, curve max at PLR = 0.99 is 1.015\n   **   ~~~   ** ...Setting curve maximum to 1.0 and simulation continues.\n   ** Warning ** GetDXCoils: Coil:Cooling:DX:SingleSpeed=\"COIL COOLING DX SINGLE SPEED 80 8KBTU/HR 10.9EER\", invalid\n   **   ~~~   ** ...Part Load Fraction Correlation Curve Name = DXCOOL-NECB2011-REF-COOLPLFFPLR 78 has out of range value.\n   **   ~~~   ** ...Curve maximum must be <= 1.0, curve max at PLR = 0.99 is 1.015\n   **   ~~~   ** ...Setting curve maximum to 1.0 and simulation continues.\n   ** Warning ** GetDXCoils: Coil:Cooling:DX:SingleSpeed=\"COIL COOLING DX SINGLE SPEED 78 10KBTU/HR 10.4EER\", invalid\n   **   ~~~   ** ...Part Load Fraction Correlation Curve Name = DXCOOL-NECB2011-REF-COOLPLFFPLR 75 has out of range value.\n   **   ~~~   ** ...Curve maximum must be <= 1.0, curve max at PLR = 0.99 is 1.015\n   **   ~~~   ** ...Setting curve maximum to 1.0 and simulation continues.\n   ** Warning ** GetDXCoils: Coil:Cooling:DX:SingleSpeed=\"COIL COOLING DX SINGLE SPEED 79 12KBTU/HR 9.9EER\", invalid\n   **   ~~~   ** ...Part Load Fraction Correlation Curve Name = DXCOOL-NECB2011-REF-COOLPLFFPLR 76 has out of range value.
[...]
6nPiW0CxodXnxDeA4kOrz4lPv2REE4JcjS6MN0mKJgS5Sl2YbZIXTQhy9bow2CQ1mnAzuppdmGqSHU0IcjW7MNIUQdp+jmRIE4Lit0hypAlB8eGXLGlCUHz4JU+aEBQffs2UpiTZul2YbJosTUmy1bsw3DRfmpJka3hhvmnKNOWutHW8MOI0a5qSZOt4YcohTkOchjjtASHitGYhTkOchjitsBCnIU7r9aoQp7X27/F8xGn7C3Habg3wPa0j8wuAAw444IADDjjggAMOOOCMHufItAPQQAMNNNBAAw000EADDTTjoXkyugNwwAEHHHDAAQcccMABB5z6/RCnbRfitJ04bTEScdp6DOK09cHEaYu7n4XWSm5cQVNX0MwVNHcFLVxBS1fQyhW0dgW1fn+vJdm6nWzlTrZ2J1u9k63fyVbwZGt4slU82TqebR3Pvvvb1vFs63ju1/Hu4rR2Vr04TcmJ36V6cZqSE98C9eI0JSe+AerFaUpOfPoFcZoU5Gp0YbwJ4jQpyFXqwmwTxGlSkKvXhcEmiNOkm9HV7MJUE8RpUpCr2YWRVi9Oa+cI4jQpKH6LBHGaFBQffkGcJgXFh18Qp0lB8eFXxGlakq3bhcmmiNO0JFu9C8NNEadpSbaGF+abIk7T7kpbxwsjThGnaUm2jhemHOI0xGmI0x4QIk5rFuI0xGmI0woLcRritF6vCnFaa/8ez0ectr8Qp+3WAN/TOjK/ADjggAMOOOCAAw444IADzuhxjkw7AA000EADDTTQQAMNNNBAMx6aJ6M7AAcccMABBxxwwAEHHHDAqd8Pcdp2IU7bidOW4xCnzU9HIE67hTyUOO30JFu8aUrO1JQzM+XMTTkLU87SlLMy5axNOa2f3UtBrkYnV6WTq9PJVerkanVy1Tq5ep1cxU6uZmdXs7PtrnY1O7uanXs1u7sgrRVV70cTYsJ3qN6OJsSE577ejSbEhGe+3owmxITnXfCiKTmmHsdjTJCiKTmmKsczTDCiKTmmNscDTNChKfegqc/x9BJcaEqOqc/x6KoXobViBA+akhO+PYIFTckJj7vgQFNywuMuGNCUnPC4K/4zKcjV6HiCKfIzKchV6niIKeYzKcjV63iOKdoz6WZ0NTseZYrzTApyNTueZgjPEJ4hPHtAiPCsWQjPEJ4hPCsshGcIz3q9KoRnrf17PB/h2f5CeLZbA3y/6si8AOCAAw444IADDjjggAMOOKPHOTJdADTQQAMNNNBAAw000EADzXhonoymABxwwAEHHHDAAQcccMABp34/hGfbhfBsJzxbjUR4lsYgPEsHFJ6dzk3GMyFo6gqauYLmrqCFK2jpClq5gtauoI9+cK8k2bqdbOVOtnYnW72Trd/JVvBka3iyVTzZOp5tHc+++9vW8WzreO7X8T4itP0sxYRWnxO/S4oLrT4nvgUUG1p9TnwDKD60+pz49EtGNCHI1ejCeJOkaEKQq9SF2SZ50YQgV68Lg01Sowk3o6vZhakm2dGEIFezCyNNEaTt50iGNCEofoskR5oQFB9+yZImBMWHX/KkCUHx4ddMaUqSrduFyabJ0pQkW70Lw03zpSlJtoYX5pumTFPuSlvHCyNOs6YpSbaOF6Yc4jTEaYjTHhAiTmsW4jTEaYjTCgtxGuK0Xq8KcVpr/x7PR5y2vxCn7dYA39M6Mr8AOOCAAw444IADDjjggAPO6HGOTDsADTTQQAMNNNBAAw000EAzHponozsABxxwwAEHHHDAAQcccMCp3w9x2nYhTtuJ09YjEaflMYjT8sHEaYu7n4XWSm5cQVNX0MwVNHcFLVxBS1fQyhW0dgW1fn+vJdm6nWzlTrZ2J1u9k63fyVbwZGt4slU82TqebR3Pvvvb1vFs63ju1/Hu4rR2Vr04TcmJ36V6cZqSE98C9eI0JSe+AerFaUpOfPoFcZoU5Gp0YbwJ4jQpyFXqwmwTxGlSkKvXhcEmiNOkm9HV7MJUE8RpUpCr2YWRVi9Oa+cI4jQpKH6LBHGaFBQffkGcJgXFh18Qp0lB8eFXxGlakq3bhcmmiNO0JFu9C8NNEadpSbaGF+abIk7T7kpbxwsjThGnaUm2jhemHOI0xGmI0x4QIk5rFuI0xGmI0woLcRritF6vCnFaa/8ez0ectr8Qp+3WAN/TOjK/ADjggAMOOOCAAw444IADzuhxjkw7AA000EADDTTQQAMNNNBAMx6aJ6M7AAcccMABBxxwwAEHHHDAqd8Pcdp2IU67F6etRuJNm47BmzbFm1YXhDft8SC8aZ2S8KbhTcObhjcNbxreNLxpeNPwpv3szYg37fEgvGmPBuFNw5uGNw1vmi0Jb1q3JLxpMQzeNLxpHy+8aff4eNM+XnjTuiy8af2ejzcNb1qvV4U3rbV/j+fjTdtfeNN2a4CvaR2ZXgAccMABBxxwwAEHHHDAAWf0OEdmHYAGGmiggQYaaKCBBhpooBkPzZOxHYADDjjggAMOOOCAAw444NTvhzdtu/Cm7bxppyMRp83GIE6bHUycdnqSLd40JWdqypmZcuamnIUpZ2nKWZly1qac1s/upSBXo5Or0snV6eQqdXK1OrlqnVy9Tq5iJ1ezs6vZ2XZXu5qdXc3OvZrdXZDWiqr3owkx4TtUb0cTYsJzX+9GE2LCM19vRhNiwvMueNGUHFOP4zEmSNGUHFOV4xkmGNGUHFOb4wEm6NCUe9DU53h6CS40JcfU53h01YvQWjGCB03JCd8ewYKm5ITHXXCgKTnhcRcMaEpOeNwV/5kU5Gp0PMEU+ZkU5Cp1PMQU85kU5Op1PMcU7Zl0M7qaHY8yxXkmBbmaHU8zhGcIzxCePSBEeNYshGcIzxCeFRbCM4RnvV4VwrPW/j2ej/BsfyE8260Bvl91ZF4AcMABBxxwwAEHHHDAAQec0eMcmS4AGmiggQYaaKCBBhpooIFmPDRPRlMADjjggAMOOOCAAw444IBTvx/Cs+1CeLYTnqWRCM/mYxCezQ8oPDudm4xnQtDUFTRzBc1dQQtX0NIVtHIFrV1BH/3gXkmydTvZyp1s7U62eidbv5Ot4MnW8GSreLJ1PNs6nn33t63j2dbx3K/jfURo+1mKCa0+J36XFBdafU58Cyg2tPqc+AZQfGj1OfHpl4xoQpCr0YXxJknRhCBXqQuzTfKiCUGuXhcGm6RGE25GV7MLU02yowlBrmYXRpoiSNvPkQxpQlD8FkmONCEoPvySJU0Iig+/5EkTguLDr5nSlCRbtwuTTZOlKUm2eheGm+ZLU5JsDS/MN02ZptyVto4XRpxmTVOSbB0vTDnEaYjTEKc9IESc1izEaYjTEKcVFuI0xGm9XhXitNb+PZ6POG1/IU7brQG+p3VkfgFwwAEHHHDAAQcccMABB5zR4xyZdgAaaKCBBhpooIEGGmiggWY8NE9GdwAOOOCAAw444IADDjjggFO/H+K07UKcthOn5ZGI0xZjEKctDiZOW9z9LLRWcuMKmrqCZq6guSto4QpauoJWrqC1K6j1+3stydbtZCt3srU72eqdbP1OtoInW8OTreLJ1vFs63j23d+2jmdbx3O/jncXp7Wz6sVpSk78LtWL05Sc+BaoF6cpOfENUC9OU3Li0y+I06QgV6ML400Qp0lBrlIXZpsgTpOCXL0uDDZBnCbdjK5mF6aaIE6TglzNLoy0enFaO0cQp0lB8VskiNOkoPjwC+I0KSg+/II4TQqKD78iTtOSbN0uTDZFnKYl2epdGG6KOE1LsjW8MN8UcZp2V9o6XhhxijhNS7J1vDDlEKchTkOc9oAQcVqzEKchTkOcVliI0xCn9XpViNNa+/d4PuK0/YU4bbcG+J7WkfkFwAEHHHDAAQcccMABBxxwRo9zZNoBaKCBBhpooIEGGmiggQaa8dA8Gd0BOOCAAw444IADDjjggANO/X6I07YLcdpOnDYdiThtOQZx2vJg4rTTk2zxpik5U1POzJQzN+UsTDlLU87KlLM25bR+di8FuRqdXJVOrk4nV6mTq9XJVevk6nVyFTu5mp1dzc62u9rV7Oxqdu7V7O6CtFZUvR9NiAnfoXo7mhATnvt6N5oQE575ejOaEBOed8GLpuSYehyPMUGKpuSYqhzPMMGIpuSY2hwPMEGHptyDpj7H00twoSk5pj7Ho6tehNaKETxoSk749ggWNCUnPO6CA03JCY+7YEBTcsLjrvjPpCBXo+MJpsjPpCBXqeMhppjPpCBXr+M5pmjPpJvR1ex4lCnOMynI1ex4miE8Q3iG8OwBIcKzZiE8Q3iG8KywEJ4hPOv1qhCetfbv8XyEZ/sL4dluDfD9qiPzAoADDjjggAMOOOCAAw444Iwe58h0AdBAAw000EADDTTQQAMNNOOheTKaAnDAAQcccMABBxxwwAEHnPr9EJ5tF8KznfBsNhLh2WoMwrPVAYVnp3OT8UwImrqCZq6guSto4QpauoJWrqC1K+ijH9wrSbZuJ1u5k63dyVbvZOt3shU82RqebBVPto5nW8ez7/62dTzbOp77dbyPCG0/SzGh1efE75LiQqvPiW8BxYZWnxPfAIoPrT4nPv2SEU0IcjW6MN4kKZoQ5Cp1YbZJXjQhyNXrwmCT1GjCzehqdmGqSXY0IcjV7MJIUwRp+zmSIU0Iit8iyZEmBMWHX7KkCUHx4Zc8aUJQfPg1U5qSZOt2YbJpsjQlyVbvwnDTfGlKkq3hhfmmKdOUu9LW8cKI06xpSpKt44UphzgNcRritAeEiNOahTgNcRritMJCnIY4rderQpzW2r/H8xGn7S/Eabs1wPe0jswvAA444IADDjjggAMOOOCAM3qcI9MOQAMNNNBAAw000EADDTTQjIfmyegOwAEHHHDAAQcccMABBxxw6vdDnLZdiNN24rT5SMRp6zGI09YHE6ct7n4WWiu5cQVNXUEzV9DcFbRwBS1dQStX0NoV1Pr9vZZk63aylTvZ2p1s9U62fidbwZOt4clW8WTreLZ1PPvub1vHs63juV/Hu4vT2ln14jQlJ36X6sVpSk58C9SL05Sc+AaoF6cpOfHpF8RpUpCr0YXxJojTpCBXqQuzTRCnSUGuXhcGmyBOk25GV7MLU00Qp0lBrmYXRlq9OK2dI4jTpKD4LRLEaVJQfPgFcZoUFB9+QZwmBcWHXxGnaUm2bhcmmyJO05Js9S4MN0WcpiXZGl6Yb4o4TbsrbR0vjDhFnKYl2TpemHKI0xCnIU57QIg4rVmI0xCnIU4rLMRpiNN6vSrEaa39ezwfcdr+Qpy2WwN8T+vI/ALggAMOOOCAAw444IADDjijxzky7QA00EADDTTQQAMNNNBAA814aJ6M7gAccMABBxxwwAEHHHDAAad+P8Rp24U4bSdOW4xDnLY4HYE47RbyUOK005Ns8aYpOVNTzsyUMzflLEw5S1POypSzNuW0fnYvBbkanVyVTq5OJ1epk6vVyVXr5Op1chU7uZqdXc3Otrva1ezsanbu1ezugrRWVL0fTYgJ36F6O5oQE577ejeaEBOe+XozmhATnnfBi6bkmHocjzFBiqbkmKoczzDBiKbkmNocDzBBh6bcg6Y+x9NLcKEpOaY+x6OrXoTWihE8aEpO+PYIFjQlJzzuggNNyQmPu2BAU3LC4674z6QgV6PjCabIz6QgV6njIaaYz6QgV6/jOaZoz6Sb0dXseJQpzjMpyNXseJohPEN4hvDsASHCs2YhPEN4hvCssBCeITzr9aoQnrX27/F8hGf7C+HZbg3w/aoj8wKAAw444IADDjjggAMOOOCMHufIdAHQQAMNNNBAAw000EADDTTjoXkymgJwwAEHHHDAAQcccMABB5z6/RCebRfCs53wbDkS4Vkag/AsHVB4djo3Gc+EoKkraOYKmruCFq6gpSto5Qpau4I++sG9kmTrdrKVO9nanWz1TrZ+J1vBk63hyVbxZOt4tnU8++5vW8ezreO5X8f7iND2sxQTWn1O/C4pLrT6nPgWUGxo9TnxDaD40Opz4tMvGdGEIFejC+NNkqIJQa5SF2ab5EUTgly9Lgw2SY0m3IyuZhemmmRHE4JczS6MNEWQtp8jGdKEoPgtkhxpQlB8+CVLmhAUH37JkyYExYdfM6UpSbZuFyabJktTkmz1Lgw3zZemJNkaXphvmjJNuSttHS+MOM2apiTZOl6YcojTEKchTntAiDitWYjTEKchTissxGmI03q9KsRprf17PB9x2v5CnLZbA3xP68j8AuCAAw444IADDjjggAMOOKPHOTLtADTQQAMNNNBAAw000EADzXhonozuABxwwAEHHHDAAQcccMABp34/xGnbhThtJ05bjUSclscgTssHE6ct7n4WWiu5cQVNXUEzV9DcFbRwBS1dQStX0NoV1Pr9vZZk63aylTvZ2p1s9U62fidbwZOt4clW8WTreLZ1PPvub1vHs63juV/Hu4vT2ln14jQlJ36X6sVpSk58C9SL05Sc+AaoF6cpOfHpF8RpUpCr0YXxJojTpCBXqQuzTRCnSUGuXhcGmyBOk25GV7MLU00Qp0lBrmYXRlq9OK2dI4jTpKD4LRLEaVJQfPgFcZoUFB9+QZwmBcWHXxGnaUm2bhcmmyJO05Js9S4MN0WcpiXZGl6Yb4o4TbsrbR0vjDhFnKYl2TpemHKI0xCnIU57QIg4rVmI0xCnIU4rLMRpiNN6vSrEaa39ezwfcdr+Qpy2WwN8T+vI/ALggAMOOOCAAw444IADDjijxzky7QA00EADDTTQQAMNNNBAA814aJ6M7gAccMABBxxwwAEHHHDAAad+P8Rp24U4bSdOW49EnDYdgzhtejBx2ulJtnjTlJypKWdmypmbchamnKUpZ2XKWZtyWj+7l4JcjU6uSidXp5Or1MnV6uSqdXL1OrmKnVzNzq5mZ9td7Wp2djU792p2d0FaK6rejybEhO9QvR1NiAnPfb0bTYgJz3y9GU2ICc+74EVTckw9jseYIEVTckxVjmeYYERTckxtjgeYoENT7kFTn+PpJbjQlBxTn+PRVS9Ca8UIHjQlJ3x7BAuakhMed8GBpuSEx10woCk54XFX/GdSkKvR8QRT5GdSkKvU8RBTzGdSkKvX8RxTtGfSzehqdjzKFOeZFORqdjzNEJ4hPEN49oAQ4VmzEJ4hPEN4VlgIzxCe9XpVCM9a+/d4PsKz/YXwbLcG+H7VkXkBwAEHHHDAAQcccMABBxxwRo9zZLoAaKCBBhpooIEGGmiggQaa8dA8GU0BOOCAAw444IADDjjggANO/X4Iz7YL4dm98GwsvrPZGHxnM3xn+M4e/5k9vjN8Z/jO8J11CcJ3hu8M3xm+M3xn+M7wneE76zW48J3hO+sUhO/s8SB8Z48H4Tt7PAjfWQSD7wzf2ccL39k9Pr6zjxe+sy4L31m/5+M7w3fW61XhO2vt3+P5+M72F76z3Rrg61VHpgUABxxwwAEHHHDAAQcccMAZPc6R2QKggQYaaKCBBhpooIEGGmjGQ/NkLAXggAMOOOCAAw444IADDjj1++E72y58Zzvf2elIhGfzMQjP5gcUnp3OTcYzIWjqCpq5guauoIUraOkKWrmC1q6gj35wryTZup1s5U62didbvZOt38lW8GRreLJVPNk6nm0dz77729bxbOt47tfxPiK0/SzFhFafE79LigutPie+BRQbWn1OfAMoPrT6nPj0S0Y0IcjV6MJ4k6RoQpCr1IXZJnnRhCBXrwuDTVKjCTejq9mFqSbZ0YQgV7MLI00RpO3nSIY0ISh+iyRHmhAUH37JkiYExYdf8qQJQfHh10xpSpKt24XJpsnSlCRbvQvDTfOlKUm2hhfmm6ZMU+5KW8cLI06zpilJto4XphziNMRpiNMeECJOaxbiNMRpiNMKC3Ea4rRerwpxWmv/Hs9HnLa/EKft1gDf0zoyvwA44IADDjjggAMOOOCAA87ocY5MOwANNNBAAw000EADDTTQQDMemiejOwAHHHDAAQcccMABBxxwwKnfD3HadiFO24nT0kjEaYsxiNMWBxOnLe5+FloruXEFTV1BM1fQ3BW0cAUtXUErV9DaFdT6/b2WZOt2spU72dqdbPVOtn4nW8GTreHJVvFk63i2dTz77m9bx7Ot47lfx7uL09pZ9eI0JSd+l+rFaUpOfAvUi9OUnPgGqBenKTnx6RfEaVKQq9GF8SaI06QgV6kLs00Qp0lBrl4XBpsgTpNuRlezC1NNEKdJQa5mF0ZavTitnSOI06Sg+C0SxGlSUHz4BXGaFBQffkGcJgXFh18Rp2lJtm4XJpsiTtOSbPUuDDdFnKYl2RpemG+KOE27K20dL4w4RZymJdk6XphyiNMQpyFOe0CIOK1ZiNMQpyFOKyzEaYjTer0qxGmt/Xs8H3Ha/kKctlsDfE/ryPwC4IADDjjggAMOOOCAAw44o8c5Mu0ANNBAAw000EADDTTQQAPNeGiejO4AHHDAAQcccMABBxxwwAGnfj/EaduFOG0nTssjEactxyBOWx5MnHZ6ki3eNCVnasqZmXLmppyFKWdpylmZctamnNbP7qUgV6OTq9LJ1enkKnVytTq5ap1cvU6uYidXs7Or2dl2V7uanV3Nzr2a3V2Q1oqq96MJMeE7VG9HE2LCc1/vRhNiwjNfb0YTYsLzLnjRlBxTj+MxJkjRlBxTleMZJhjRlBxTm+MBJujQlHvQ1Od4egkuNCXH1Od4dNWL0FoxggdNyQnfHsGCpuSEx11woCk54XEXDGhKTnjcFf+ZFORqdDzBFPmZFOQqdTzEFPOZFOTqdTzHFO2ZdDO6mh2PMsV5JgW5mh1PM4RnCM8Qnj0gRHjWLIRnCM8QnhUWwjOEZ71eFcKz1v49no/wbH8hPNutAb5fdWReAHDAAQcccMABBxxwwAEHnNHjHJkuABpooIEGGmiggQYaaKCBZjw0T0ZTAA444IADDjjggAMOOOCAU78fwrPtQni2E55NRyI8W41BeLY6oPDsdG4ynglBU1fQzBU0dwUtXEFLV9DKFbR2BX30g3slydbtZCt3srU72eqdbP1OtoInW8OTreLJ1vFs63j23d+2jmdbx3O/jvcRoe1nKSa0+pz4XVJcaPU58S2g2NDqc+IbQPGh1efEp18yoglBrkYXxpskRROCXKUuzDbJiyYEuXpdGGySGk24GV3NLkw1yY4mBLmaXRhpiiBtP0cypAlB8VskOdKEoPjwS5Y0ISg+/JInTQiKD79mSlOSbN0uTDZNlqYk2epdGG6aL01JsjW8MN80ZZpyV9o6XhhxmjVNSbJ1vDDlEKchTkOc9oAQcVqzEKchTkOcVliI0xCn9XpViNNa+/d4PuK0/YU4bbcG+J7WkfkFwAEHHHDAAQcccMABBxxwRo9zZNoBaKCBBhpooIEGGmiggQaa8dA8Gd0BOOCAAw444IADDjjggANO/X6I07YLcdpOnDYbiThtPQZx2vpg4rTF3c9CayU3rqCpK2jmCpq7ghauoKUraOUKWruCWr+/15Js3U62cidbu5Ot3snW72QreLI1PNkqnmwdz7aOZ9/9bet4tnU89+t4d3FaO6tenKbkxO9SvThNyYlvgXpxmpIT3wD14jQlJz79gjhNCnI1ujDeBHGaFOQqdWG2CeI0KcjV68JgE8Rp0s3oanZhqgniNCnI1ezCSKsXp7VzBHGaFBS/RYI4TQqKD78gTpOC4sMviNOkoPjwK+I0LcnW7cJkU8RpWpKt3oXhpojTtCRbwwvzTRGnaXelreOFEaeI07QkW8cLUw5xGuI0xGkPCBGnNQtxGuI0xGmFhTgNcVqvV4U4rbV/j+cjTttfiNN2a4DvaR2ZXwAccMABBxxwwAEHHHDAAWf0OEemHYAGGmiggQYaaKCBBhpooBkPzZPRHYADDjjggAMOOOCAAw444NTvhzhtuxCn7cRp83GI05anIxCn3UIeSpx2epIt3jQlZ2rKmZly5qachSlnacpZmXLWppzWz+6lIFejk6vSydXp5Cp1crU6uWqdXL1OrmInV7Ozq9nZdle7mp1dzc69mt1dkNaKqvejCTHhO1RvRxNiwnNf70YTYsIzX29GE2LC8y540ZQcU4/jMSZI0ZQcU5XjGSYY0ZQcU5vjASbo0JR70NTneHoJLjQlx9TneHTVi9BaMYIHTckJ3x7BgqbkhMddcKApOeFxFwxoSk543BX/mRTkanQ8wRT5mRTkKnU8xBTzmRTk6nU8xxTtmXQzupodjzLFeSYFuZodTzOEZwjPEJ49IER41iyEZwjPEJ4VFsIzhGe9XhXCs9b+PZ6P8Gx/ITzbrQG+X3VkXgBwwAEHHHDAAQcccMABB5zR4xyZLgAaaKCBBhpooIEGGmiggWY8NE9GUwAOOOCAAw444IADDjjggFO/H8Kz7UJ4thOeLUYiPEtjEJ6lAwrPTucm45kQNHUFzVxBc1fQwhW0dAWtXEFrV9BHP7hXkmzdTrZyJ1u7k63eydbvZCt4sjU82SqebB3Pto5n3/1t63i2dTz363gfEdp+lmJCq8+J3yXFhVafE98Cig2tPie+ARQfWn1OfPolI5oQ5Gp0YbxJUjQhyFXqwmyTvGhCkKvXhcEmqdGEm9HV7MJUk+xoQpCr2YWRpgjS9nMkQ5oQFL9FkiNNCIoPv2RJE4Liwy950oSg+PBrpjQlydbtwmTTZGlKkq3eheGm+dKUJFvDC/NNU6Ypd6Wt44URp1nTlCRbxwtTDnEa4jTEaQ8IEac1C3Ea4jTEaYWFOA1xWq9XhTittX+P5yNO21+I03ZrgO9pHZlfABxwwAEHHHDAAQcccMABZ/Q4R6YdgAYaaKCBBhpooIEGGmigGQ/Nk9EdgAMOOOCAAw444IADDjjg1O+HOG27EKftxGnLkYjT8hjEaflg4rTF3c9CayU3rqCpK2jmCpq7ghauoKUraOUKWruCWr+/15Js3U62cidbu5Ot3snW72QreLI1PNkqnmwdz7aOZ9/9bet4tnU89+t4d3FaO6tenKbkxO9SvThNyYlvgXpxmpIT3wD14jQlJz79gjhNCnI1ujDeBHGaFOQqdWG2CeI0KcjV68JgE8Rp0s3oanZhqgniNCnI1ezCSKsXp7VzBHGaFBS/RYI4TQqKD78gTpOC4sMviNOkoPjwK+I0LcnW7cJkU8RpWpKt3oXhpojTtCRbwwvzTRGnaXelreOFEaeI07QkW8cLUw5xGuI0xGkPCBGnNQtxGuI0xGmFhTgNcVqvV4U4rbV/j+cjTttfiNN2a4DvaR2ZXwAccMABBxxwwAEHHHDAAWf0OEemHYAGGmiggQYaaKCBBhpooBkPzZPRHYADDjjggAMOOOCAAw444NTvhzhtuxCn7cRpq5GI06ZjEKdNDyZOOz3JFm+akjM15cxMOXNTzsKUszTlrEw5a1NO62f3UpCr0clV6eTqdHKVOrlanVy1Tq5eJ1exk6vZ2dXsbLurXc3OrmbnXs3uLkhrRdX70YSY8B2qt6MJMeG5r3ejCTHhma83owkx4XkXvGhKjqnH8RgTpGhKjqnK8QwTjGhKjqnN8QATdGjKPWjqczy9BBeakmPqczy66kVorRjBg6bkhG+PYEFTcsLjLjjQlJzwuAsGNCUnPO6K/0wKcjU6nmCK/EwKcpU6HmKK+UwKcvU6nmOK9ky6GV3NjkeZ4jyTglzNjqcZwjOEZwjPHhAiPGsWwjOEZwjPCgvhGcKzXq8K4Vlr/x7PR3i2vxCe7dYA3686Mi8AOOCAAw444IADDjjggAPO6HGOTBcADTTQQAMNNNBAAw000EAzHponoykABxxwwAEHHHDAAQcccMCp3w/h2XYhPNsJz9YjEZ7NxiA8mx1MeJZmpyeneyvNLP4zY+x0mNjZMLHzYWIXw8Quh4ldDRO7Hia29XN/Z+5A5ywNdNDSQCctDXTU0kBnLQ102NJApy0NdNzSQOctD3Te8lBzbaDzlgc6b1k5b93FcqXkes+cL7Xru1tvofOldr3J6h11vtSut1i9wc6X2vUGE/x2xthhTlfnjwuCDM8YO8wB6/xZQTDnGWOHOWOdPygImj3jVBjmlHX+lCA4+Yyxw5yyzh8R6gV+pVTB52eM7frWCrY/Y2zXC0xwARpju15gginQGNv1AlM8gs7cgc5Z508KinTQmTvQUev8YUExFDpzBzptnT8vKDpD55wY6Lx1/siguA+duQOdt86fGhAlIkpElPiAEFFisxAlIkpElFhYiBIRJfZ6VYgSW/v3eD6ixP2FKHG3Bvhe5pH5RMABBxxwwAEHHHDAAQcccEaPc2SaEWiggQYaaKCBBhpooIEGmvHQPBm9CTjggAMOOOCAAw444IADTv1+/wmixD9uvn+7uTq7eXe1mTz/6hO8icflTdxc/XD+cjP597Omeb+5vHw7af7Cmu85z06/GolCcT4GheL8YArF+fxkut5b07lFoWiMnQ4TOxsmdj5M7GKY2OUwsathYtfDxLZMB87cgc5ZGuigpYFOWhroqKWBzloa6LClgU5bGui4pYHOWx7ovOWh5tpA5y0PdN6yct66KxRLyfUKRV9q13e3XqHoS+16k9UrFH2pXW+xeoWiL7XrDSYoFI2xw5yuzh8XBIWiMXaYA9b5s4KgUDTGDnPGOn9QEBSKxqkwzCnr/ClBUCgaY4c5ZZ0/ItQrFEupgkLRGNv1rRUUisbYrheYoFA0xna9wASFojG26wWmKBSduQOds86fFBSFojN3oKPW+cOColB05g502jp/XlAUis45MdB56/yRQVEoOnMHOm+dPzWgUEShiELxASEKxWahUEShiEKxsFAoolDs9apQKLb27/F8FIr7C4Xibg3wjc0jM42AAw444IADDjjggAMOOOCMHufIBCTQQAMNNNBAAw000EADDTTjoXky4hNwwAEHHHDAAQcccMABB5z6/VAo/vx6ugrFd2/fXryffH5+dadOHIkzcTEGZ+LiYM7Eu/9cK2cy5UxNOTNTztyUszDlLE05K1PO2pTTcgpIQa5GJ1elk6vTyVXq5Gp1ctU6uXqdXMVOrmZnV7Oz7a52NTu7mp17Nbu7y68VVS/vE2LCd6hezyfEhOe+XsAnxIRnvl6xJ8SE512Q6Ck5ph7HY0zw4ik5pirHM0xQ3Sk5pjbHA0yw1yn3oKnP8fQShHRKjqnP8eiqd8y1YgSpnJITvj2CNk7JCY+7IIZTcsLjLqjflJzwuCtyNynI1eh4gim+NinIVep4iCkKNinI1et4jilWNelmdDU7HmWKKE0KcjU7nmYPgv716vzy6vzm/SRNPp08/8O7N580FqrFp//z7M2np+nTu//8683LT6cpGnOnrf+P3uefz2brtWGLPPwW0+G3mA2/xXz4LRbDb7EcfovV8Fush9+iNdmH2uMA5zsd4ICnA5zwdIAjng5wxtMBDnk6wClPBzjm6QDnPB/gnOdDzPEDnPN8gHOe6855vtvj7Cba47Tbx6rpNOfVwrBF/Ldh2yL+y7BtEf9d2LaIr1zbFvGNa9sivnBtW8T3rW2L+Lq1bVH4WOXb4wDnu/CxyrfHAU544WOVb48DnPHCxyrfHgc45YWPVb49DnDOCx+rfHscYo4f4JwXPlb59qg759Nmj6+uzoM98rrbx6qUlsvp1LBF/Ldh2yL+y7BtEf9d2LaIr1zbFvGNa9sivnBtW8T3rW2L+LtRti0KXwj07RF/o8q3R/xlK98e8fewfHvEX9Hy7RF/L9G3R/yVRd8e8bcZfXvEX3T07XGAc174WOXb4xBz/ACDvPCxyrdH3SifNXv88dt30R6rbh+rmv/Gpfk/GraI/zZsW8R/GbYt4r8L2xbxxyrbFvHHKtsW8ccq2xbxxyrbFvF1a9ui8LHKt0f8scq3R/yxyrdH/LHKt0f8scq3R/yxyrdH/LHKt0f8scq3R/yxyrfHAc554WOVb49DzPEDDPLCxyrfHnWjfN7s8e+bV9Eey24fq3796y++WC4NW8R/G7Yt4r8M2xbx34Vti/hjlW2L+GOVbYv4Y5Vti/hjlW2L+Lq1bVH4WOXbI/5Y5dsj/ljl2yP+WOXbI/5Y5dsj/ljl2yP+WOXbI/5Y5dsj/ljl2+MA57zwscq3xyHm+AEGeeFjlW+PulG+uPvo9m4T7bHo9rHqiy8WC8sW8d+GbYv4L8O2Rfx3Ydsi/lhl2yL+WGXbIv5YZdsi/lhl2yK+bm1bFD5W+faIP1b59og/Vvn2iD9W+faIP1b59og/Vvn2iD9W+faIP1b59og/Vvn2OMA5L3ys8u1xiDl+gEFe+Fjl26NulC+bPX57GX0tPs+7faxarXKezw1bxH8bti3ivwzbFvHfhW2L+GOVbYv4Y5Vti/hjlW2L+GOVbYuSd8q0RVG25tqjZKty7VESWbn2KDmuXHuU9FeuPUrON9ceJR2ca4+SKc61R0ki59rjAOe88LHKt8ch5vgBBnnhY5Vvj8dH+Z+7GF63GubJZ5M3mx/vDbJ34tjn1z+8fnFngH1UFXvvcr7e3Pzj5bs3r66fz09fTFKav5hMm/+U5910sz/dYuw81K9efXF2s3l9efX+85/Orz+YkHevv4Mw+jbgd1evNle/f9eIiTv/wYbjfZvjt5uz63dXmw8YjVt5+74PbOTmYR7mYR7mYR7mYR7mYR7mYR7mYR7mYR7mYR7mYR7mYR7mYR7mYR7mYR7mYR7mYR7mYR7mYR7mYR7mYR7mYR7mYR7mYR7mYR7mYR7mYR7mYR7mYR7m4f+nHn5/cvnD5urq/NXmt2fND2vTyan4e9Xmp7HX7Z/G/mFzdb653v689tmL+x8Qv724vDm5OH+zefQnstc/9zvdx39Ze31y9189//by4uzm/PLNLdSz65vN20+/3nxzebV51u2Xz7/ZvN68edV+QR/+2fPF6YvJtPnl8mnzQ+bmfzy72Hxz04A9En0fe/KX15ubL9/cNO/P7RbfvHvz8o70+SeT/3gk4p5ws/vTf3r0t9zNOv9m8vzm2/Prk+u7v5VuGzVr7w+d3L5/X569/Pb5/wXum3aP3/x0/JZ9m/uXt5fX503gr2//cZdXc7+amJ+hurr8sR/SPdb5m1eb5jx8ml70/NP367vaP/jN+eai6dvz7Xv64Zy8vrp893bzavJ3fzf5L9t//tPJX749u97+/r05YJ/sP/r+Zx+9fUNOzl6//qrZ4+Ri8+b1zbeTf5jkyf+YPPv84uLZ5FftZ1xfnL/cPP80ffKn0z9/8uh5e/BKLq8mz7+7fSmnfz/57nabbVW3+zb/7L/d3jj9/4Ka1dR4m/en7/588tfN+8lnn3324c2rS7xL3f61f9f3pd6vr682Z3+t+cN/6/ln+j6/eb+2r+6zptZNGbZNuRM5nPzl7Pr6/PWbzasvGkXE9Z/u3sk/172V93/Rb99df/u89u/i9q/0Vx/+PutP0sXFr7q8ypPmmbW7XN9cXf51022fD8+t3eny7dnL85v33bbaPrn6Vd1tcb9Vbcr9RdK+VmqOR+/Lp1n3x7l98Uw+naS+aX2OW3fWv724m6qdnv+3xz5TNOuXv5z867/9cfJ/fvdvv5/84Xe//+O//K9/mvzmd//0L19M/vnL33/ZLeCr21t789NZ8xFtcnM5ub68upm8eff9bQ9eTu6UJteTs+uXtx9ezt+87pB4/943OXuT+ezF5Ovul8vV5ubd1ZvJ27Or681XF5dnN8/Pmiv/k9u/yr1/9vXdP+v0Zj7+EW1v2+1LeCz4b8OaXnafP++O+91hf/6LV5tvzt5d3EzeXl3e3mGbX7yY/OK/rlZffPHll78YWDwDDjjggAMOOOCAAw444IDz/ybO5Prd97f/X+DJq03zDyevzt43RFebV9BAAw000EADDTTQQAMNNNCUaX68+2rWRzRfX7zbgAMOOOCAAw444IADDjjggFODs/vvDUzNf2/gH95F/72B03T3b9g+/3w2W68hhRRSSCGFFFJIIYUUUkghhRTScZDmO9Kzm4j09I50Os15tYAUUkghhRRSSCGFFFJIIYUUUkjHQTptSL+6Og9I8/qONKXlcjqFFFJIIYUUUkghhRRSSCGFFFJIx0E6a0j/+O27iHR1R7q+XfN/hBRSSCGFFFJIIYUUUkghhRRSSMdBOm9I/33zKiJd3pH++tdffLFcQgoppJBCCimkkEIKKaSQQgoppOMgXdz9XybebSLSxR3pF18sFpBCCimkkEIKKaSQQgoppJBCCulYSJcN6W8vI7Ngnt+RrlY5z+eQQgoppJBCCimkkEIKKaSQQgrpwUjvUV5dnf34/NGwn05uzm8uNn/49uzt5uRm89PN81/88+W7q+vHMd4//JO/Pv9+8+b6/PLNxeb6LuGRiF/+cvL5q1eTs8ld0uTH85tvJ9eX328mr6aP/MnrH16fnL19u3nz6vmzZu9nnzzyB+7XydnNzdXzZz89ezFZnPb8Q+9v/1Du/oeub95fbD7gfXr25uW3l1e3f/7ZxeabHrTbjG8u39x8+uPm/PW3N03G15cXr7pnfPi7+d+f/+8Pb/DvN99uzm4mv3v5cvKHl9/+4pPSX9I//PL65dX525v/Hj7nH3756vyHn384/DNx2G3W5PzVZ89eNg3+4vZFn52/2Vz9JS+XzyZ3b8Vnz16dX7+9OHv/q/M3F7ePffr1xeXLv/79sxjwNvXDa5jcvH97++ebd+OX3539cPbhnxb/ZLN+OLtq2jb5bPLq/Pu3F5uTN5sf//DD6+fP/uvPQL6YzE5P7/7Ho8enyX11dnN2G/yn/3h2cfb15uLZr5692nxz9u7iZvL26vKb84vNsxcfHvnLT89+lU5OXzz74ezi3ebZrxbrk/XeWq1fPHvZ3Dm3CbfXyBdffPnls7+96JSaB0mdDpI6GyR1PkjqYpDU5SCpq0FS14OkptNhYoc5XWmY45WGOV9pmAOWhjlhaZgjloY5Y2mYQ5aGOWV5mFOWB5phw5yyPMwpy8Ipm1y/+/771n+Nd8UnhKvNqx6hHd/bfqEd39l+oR3f136hHe+ufqEdb65+oR3vrX6hHW+tfqEd76x+oV0/GPRMHeRMdf1Y0DN1kFPV9UNBz9RBzlXXjwQ9Uwc5WV0/EPRMHeRsdf040DN1mHk1yNnq+lmgZ2rt2frx/M2N+jHg6+YJ3VM7vq09Uzu+rT1TO76tPVM7Xlk9UzteWT1TO15ZPVM7Xlk9UzteWT1Tu34e6Bs7zOnq+omgb+ww56vrZ4K+scOcsK6fCvrGDnPGun4u6Bs7zCnr+smgb+xAM2yYU9b1w0Hf2F6n7M9d/oXD9t8NTj6bvNn8eP8vNO7+Pcbz6x9ev7j7FxKP/puL+3/BeL25+cfLd29eXT+fn76YpDR/MZk2/ynPu/3bj59uMXb/3vTVqy/ObjavL6/ef/7T+fWHf0G3eys6/FvM24DfXb3aXP3+XfPvyzr/wYbjfZvjt5uz63dXmw8Yzb/y2/4VqP9e9u5fJLW3+sPm6nxzvcW93Wn7F/L24vLmpPm3W49uef1zr/tx0uuTu969vbw4uzm/fHML9ez6ZvP2068331xebZ51a9JvNq83b161X9CHf/Z8cduCadOE5l+GpeZ/bP+156P/Rvg+9uQvrzc3X765ad6f2y2+effm5R3p808m/9Hh33s2hJvdn/7To2ejWeffTJ7ffHt+fdvr5s9126hZe3/o5Pb9+/Ls5bfP/y9w37R7/O2/G9zm/uXt5fV5E/jr23/c5dXcrybmZ6iuLn/sh3SPdf7m1aY5uJ+mFz3/9P36rvYPfnO+uWj69nz7nn44J6+vLt+93bya/N3fTf7L9p//dPKXb8+ut/dJc8A+2X/0/c8+evuGnJy9fv1Vs8fJxebN65tvJ/8wyZP/MXn2+cXFs8mv2s+4vjh/uXn+afrkT6d//uTR8/bglVxeTZ5/d/tSTv9+8t3tNtuqbvdt/tl/+2yS+v8FNaup8TbvT9/9+eSvm9vr7bPPPrx5dYl3qdu/9u/6vtT79fXV5uyvNX/4bz3/TN/nN+/X9tV91tS6KcO2KXeD8eQvH77Ts3l1962e6z/dvZN/rnsr7/+i3767/vZ57d/F7V/prz78fdafpIuLX3V5lSfNM2t3ub65uvzrpts+H55bu9Pl27OX5zfvu221fXL1q7rb4n6r2pT7i6R9rdQcj96XT7Puj3P74pl8Okl90/oct+6sf3txN1U7Pf9vj32maNYvfzn513/74+T//O7ffj/5w+9+/8d/+V//NPnN7/7pX76Y/POXv/+yW8BXt7f25qez5iPa5OZycn15+0H6zbvvb3vwcnL3EfF6cnb98vbDy/mb1x0S79/7JmdvMp+9mHzd/XK52ty8u3ozeXt2db356uLy7Ob5WXPlf3L7V7n3z76++2ed3szHP6Ltbbt9CY8F/+0/4buXH/0L2O0XLJt/ofqf8lVQcMABBxxwwAEHHHDAAQec0eM8/IJLQ3S1eQUNNNBAAw000EADDTTQQANNmebBVwIbmuYrfuCAAw444IADDjjggAMOOOD8JxoP/7j5/u3m6uzm3dVm8vyrT3AeHpXz8N/Pmsb98+buf33+/dfnmzc3k+avrDEfbl69u33/P50sT78aiQRxNQYJ4upgEsS7n57WSphMOVNTzsyUMzflLEw5S1POypSzNuW07AJSkKvRyVXp5Op0cpU6uVqdXLVOrl4nV7GTq9nZ1exsu6tdzc6uZudeze4u7WtF1Wv6hJjwHapX8Qkx4bmv1+0JMeGZr1fqCTHheRe0eUqOqcfxGBNkeEqOqcrxDBMUd0qOqc3xABPEdco9aOpzPL0EHZ2SY+pzPLrqJXOtGEErp+SEb4+gjlNywuMu6OGUnPC4Cwo4JSc87ormTQpyNTqeYIq8TQpylToeYoqSTQpy9TqeY4poTboZXc2OR5miT5OCXM2OpxlStFFI0XiYh3mYh3mYh3mYh3mYh3mYh3mYh3mYh3n4mB5+f3L5w+bq6vzV5rdnzf+hKp2cIsXfeyVI8XcLKX6vhRQfKX6PhRT/44UU/+OFFL/nQoqPFP9nF1J8cMABBxxwwAEHHHDAAQcccMaglIQGGmiggQYaaKCBBhpooBkPzZNRWYIDDjjggAMOOOCAAw444NTv958gxf/1+febN9fnl28uNtfXKPGPS4l/efXXyZfffHP+8nzz5uX7nQj/sAr87bM/emT//33/nz/871369j/s/tfXl6/eN//725vvL/77//f/AxJoFk4="
               },
               {
                  "name" : "annual_peak_electric_demand",
                  "units" : "kW",
                  "value" : 169.72378
               },
               {
                  "name" : "first_year_capital_cost",
                  "units" : "$",
                  "value" : 0
               },
               {
                  "name" : "annual_utility_cost",
                  "units" : "$",
                  "value" : 73178.779999999999
               },
               {
                  "name" : "total_lifecycle_cost",
                  "units" : "$",
                  "value" : 1251562.22
               }
            ],
            "step_warnings" : []
         }
      }
   ],
   "updated_at" : "20170710T190011Z",
   "weather_file" : "USA_CO_Denver.Intl.AP.725650_TMY3.epw"
}
