{
   "completed_at" : "20170710T191834Z",
   "completed_status" : "Success",
   "created_at" : "2017-07-10 19:16:18 +0000",
   "current_step" : 5,
   "description" : "",
   "eplusout_err" : "Program Version,EnergyPlus, Version 8.7.0-78a111df4a, YMD=2017.07.10 19:17,IDD_Version 8.7.0\n   ************* IDF Context for following error/warning message:\n   ************* Note -- lines truncated at 300 characters, if necessary...\n   *************      5 Building,\n   ************* indicated Name=NECB 2011-Warehouse-NECB HDD Method-CAN_SK_North.Battleford.718760_CWEC.epw created: 2017-07-10 19:16:24 +0000\n   ************* Only last 1 lines before error line shown.....\n   *************      6   NECB 2011-Warehouse-NECB HDD Method-CAN_SK_North.Battleford.718760_CWEC.epw created: 2017-07-10 19:16:24 +0000, !- Name\n   ** Warning ** IP: IDF line~6 Alpha Argument length exceeds maximum, will be truncated=  NECB 2011-Warehouse-NECB HDD Method-CAN_SK_North.Battleford.718760_CWEC.epw created: 2017-07-10 19:16:24 +000\n   **   ~~~   ** Will be processed as Alpha=NECB 2011-WAREHOUSE-NECB HDD METHOD-CAN_SK_NORTH.BATTLEFORD.718760_CWEC.EPW CREATED: 2017-07-10 19:16:24 +0000\n   ************* Beginning Zone Sizing Calculations\n   ** Warning ** ProcessScheduleInput: Schedule:Day:Interval=\"ECONOMIZER MAX OA FRACTION 100 PCT DEFAULT\", Blank Schedule Type Limits Name input -- will not be validated.\n   ** Warning ** ProcessScheduleInput: Schedule:Day:Interval=\"SCHEDULE DAY 1\", Blank Schedule Type Limits Name input -- will not be validated.\n   ** Warning ** ProcessScheduleInput: Schedule:Day:Interval=\"SCHEDULE DAY 10\", Blank Schedule Type Limits Name input -- will not be validated.\n   ** Warning ** ProcessScheduleInput: Schedule:Day:Interval=\"SCHEDULE DAY 11\", Blank Schedule Type Limits Name input -- will not be validated.\n   ** Warning ** ProcessScheduleInput: Schedule:Day:Interval=\"SCHEDULE DAY 12\", Blank Schedule Type Limits Name input -- will not be validated.\n   ** Warning ** ProcessScheduleInput: Schedule:Day:Interval=\"SCHEDULE DAY 13\", Blank Schedule Type Limits Name input -- will not be validated.\n   ** Warning ** ProcessScheduleInput: Schedule:Day:Interval=\"SCHEDULE DAY 14\", Blank Schedule Type Limits Name input -- will not be validated.\n   ** Warning ** ProcessScheduleInput: Schedule:Day:Interval=\"SCHEDULE DAY 15\", Blank Schedule Type Limits Name input -- will not be validated.\n   ** Warning ** ProcessScheduleInput: Schedule:Day:Interval=\"SCHEDULE DAY 16\", Blank Schedule Type Limits Name input -- will not be validated.\n   ** Warning ** ProcessScheduleInput: Schedule:Day:Interval=\"SCHEDULE DAY 17\", Blank Schedule Type Limits Name input -- will not be validated.\n   ** Warning ** ProcessScheduleInput: Schedule:Day:Interval=\"SCHEDULE DAY 18\", Blank Schedule Type Limits Name input -- will not be validated.\n   ** Warning ** ProcessScheduleInput: Schedule:Day:Interval=\"SCHEDULE DAY 19\", Blank Schedule Type Limits Name input -- will not be validated.\n   ** Warning ** ProcessScheduleInput: Schedule:Day:Interval=\"SCHEDULE DAY 2\", Blank Schedule Type Limits Name input -- will not be validated.\n   ** Warning ** ProcessScheduleInput: Schedule:Day:Interval=\"SCHEDULE DAY 5\", Blank Schedule Type Limits Name input -- will not be validated.\n   ** Warning ** ProcessScheduleInput: Schedule:Day:Interval=\"SCHEDULE DAY 6\", Blank Schedule Type Limits Name input -- will not be validated.\n   ** Warning ** ProcessScheduleInput: Schedule:Day:Interval=\"SCHEDULE DAY 7\", Blank Schedule Type Limits Name input -- will not be validated.\n   ** Warning ** ProcessScheduleInput: Schedule:Day:Interval=\"SCHEDULE DAY 8\", Blank Schedule Type Limits Name input -- will not be validated.\n   ** Warning ** ProcessScheduleInput: Schedule:Day:Interval=\"SCHEDULE DAY 9\", Blank Schedule Type Limits Name input -- will not be validated.\n   ** Warning ** ProcessScheduleInput: Schedule:Year=\"ECONOMIZER MAX OA FRACTION 100 PCT\", Blank Schedule Type Limits Name input -- will not be validated.\n   ** Warning ** ProcessScheduleInput: Schedule:Year=\"SCHEDULE RULESET 10\", Blank Schedule Type Limits Name input -- will not be validated.\n   ** Warning ** ProcessScheduleInput: Schedule:Year=\"SCHEDULE RULESET 11\", Blank Schedule Type Limits Name input -- will not be validated.\n   ** Warning ** ProcessScheduleInput: Schedule:Year=\"SCHEDULE RULESET 3\", Blank Schedule Type Limits Name input -- will not be validated.\n   ** Warning ** ProcessScheduleInput: Schedule:Year=\"SCHEDULE RULESET 4\", Blank Schedule Type Limits Name input -- will not be validated.\n   ** Warning ** ProcessScheduleInput: Schedule:Year=\"SCHEDULE RULESET 5\", Blank Schedule Type Limits Name input -- will not be validated.\n   ** Warning ** ProcessScheduleInput: Schedule:Year=\"SCHEDULE RULESET 6\", Blank Schedule Type Limits Name input -- will not be validated.\n   ** Warning ** ProcessScheduleInput: Schedule:Year=\"SCHEDULE RULESET 7\", Blank Schedule Type Limits Name input -- will not be validated.\n   ** Warning ** ProcessScheduleInput: Schedule:Year=\"SCHEDULE RULESET 8\", Blank Schedule Type Limits Name input -- will not be validated.\n   ** Warning ** ProcessScheduleInput: Schedule:Year=\"SCHEDULE RULESET 9\", Blank Schedule Type Limits Name input -- will not be validated.\n   ** Warning ** ProcessScheduleInput: Schedule:Constant=\"ALWAYS OFF DISCRETE\", Blank Schedule Type Limits Name input -- will not be validated.\n   ** Warning ** ProcessScheduleInput: Schedule:Constant=\"ALWAYS ON CONTINUOUS\", Blank Schedule Type Limits Name input -- will not be validated.\n   ** Warning ** CheckUsedConstructions: There are 22 nominally unused constructions in input.\n   **   ~~~   ** For explicit details on each unused construction, use Output:Diagnostics,DisplayExtraWarnings;\n   ************* Beginning System Sizing Calculations\n   ************* Beginning Plant Sizing Calculations\n   ** Warning ** GetDXCoils: Coil:Cooling:DX:SingleSpeed=\"COIL COOLING DX SINGLE SPEED 1 32KBTU/HR 14.0SEER\", invalid\n   **   ~~~   ** ...Part Load Fraction Correlation Curve Name = DXCOOL-NECB2011-REF-COOLPLFFPLR has out of range value.\n   **   ~~~   ** ...Curve maximum must be <= 1.0, curve max at PLR = 0.99 is 1.015\n   **   ~~~   ** ...Setting curve maximum to 1.0 and simulation continues.\n   ** Warning ** GetDXCoils: Coil:Cooling:DX:SingleSpeed=\"COIL COOLING DX SINGLE SPEED 3 157KBTU/HR 9.7EER\", invalid\n   **   ~~~   ** ...Part Load Fraction Correlation Curve Name = DXCOOL-NECB2011-REF-COOLPLFFPLR 2 has out of range value.\n   **   ~~~   ** ...Curve maximum must be <= 1.0, curve max at PLR = 0.99 is 1.015\n   **   ~~~   ** ...Setting curve maximum to 1.0 and simulation continues.\n   ** Warning ** GetDXCoils: Coil:Cooling:DX:SingleSpeed=\"COIL COOLING DX SINGLE SPEED 2 364KBTU/HR 8.21EER\", invalid\n   **   ~~~   ** ...Part Load Fraction Correlation Curve Name = DXCOOL-NECB2011-REF-COOLPLFFPLR 1 has out of range value.\n   **   ~~~   ** ...Curve maximum must be <= 1.0, curve max at PLR = 0.99 is 1.015\n   **   ~~~   ** ...Setting curve maximum to 1.0 and simulation continues.\n   ** Warning ** The Standard Ratings is calculated for Coil:Cooling:DX:SingleSpeed = COIL COOLING DX SINGLE SPEED 1 32KBTU/HR 14.0SEER but not at the AHRI test condition due to curve out of bound.\n   **   ~~~   **  Review the Standard Ratings calculations in the Engineering Reference for this coil type. Also, use Output:Diagnostics, DisplayExtraWarnings for further guidance.\n   ** Warning ** The Standard Ratings is calculated for Coil:Cooling:DX:SingleSpeed = COIL COOLING DX SINGLE SPEED 3 157KBTU/HR 9.7EER but not at the AHRI test condition due to curve out of bound.\n   **   ~~~   **  Review the Standard Ratings calculations in the Engineering Reference for this coil type. Also, use Output:Diagnostics, DisplayExtraWarnings for further guidance.\n   ** Warning ** The Standard Ratings is calculated for Coil:Cooling:DX:SingleSpeed = COIL COOLING DX SINGLE SPEED 2 364KBTU/HR 8.21EER but not at the AHRI test condition due to curve out of bound.\n   **   ~~~   **  Review the Standard Ratings calculations in the Engineering Reference for this coil type. Also, use Output:Diagnostics, DisplayExtraWarnings for further guidance.\n   ** Warning ** Check input. Pump nominal power or motor efficiency is set to 0, for pump=SERVICE WATER LOOP PUMP\n   ** Warning ** Output:Meter: invalid Name=\"DISTRICTCOOLING:FACILITY\" - not found.\n   ** Warning ** Output:Meter: invalid Name=\"DISTRICTHEATING:FACILITY\" - not found.\n   ** Warning ** Output:Meter:MeterFileOnly requested for \"Electricity:Facility\" (TimeStep), already on \"Output:Meter\". Will report to both eplusout.eso and eplusout.mtr\n   ************* Testing Individual Branch Integrity\n   ************* All Branches passed integrity testing\n   ************* Testing Individual Supply Air Path Integrity\n   ************* All Supply Air Paths passed integrity testing\n   ************* Testing Individual Return Air Path Integrity\n   ************* All Return Air Paths passed integrity testing\n   ************* No node connection errors were found.\n   ************* Beginning Simulation\n   ** Warning ** CalcDoe2DXCoil: Coil:Cooling:DX:SingleSpeed \"COIL COOLING DX SINGLE SPEED 1 32KBTU/HR 14.0SEER\" - Air-cooled condenser inlet dry-bulb temperature below 0 C. Outdoor dry-bulb temperature = -10.53\n   **   ~~~   **  ... Occurrence info = RUN PERIOD 1, 01/02 06:03 - 06:05\n   **   ~~~   ** ... Operation at low ambient temperatures may require special performance curves.\n   ************* Simulation Error Summary *************\n   ************* There are 9 unused schedules in input.\n   ************* There are 9 unused week schedules in input.\n   ************* There are 18 unused day schedules in input.\n   ************* Use Output:Diagnostics,DisplayUnusedSchedules; to see them.\n   *************\n   ************* ===== Recurring Error Summary =====\n   ************* The following recurring error messages occurred.\n   *************\n   *************  ** Warning ** CalcDoe2DXCoil: Coil:Cooling:DX:SingleSpeed=\"COIL COOLING DX SINGLE SPEED 1 32KBTU/HR 14.0SEER\" - Low condenser dry-bulb temperature error continues...\n   *************  **   ~~~   **   This error occurred 505 total times;\n   *************  **   ~~~   **   during Warmup 0 times;\n   *************  **   ~~~   **   during Sizing 0 times.\n   *************  **   ~~~   **   Max=-2.500000E-002 [C]  Min=-34.675 [C]\n   *************\n   *************\n   ************* ===== Final Error Summary =====\n   ************* The following error categories occurred.  Consider correcting or noting.\n   ************* Nominally Unused Constructions\n   ************* ..The nominally unused constructions warning is provided to alert you to potential conditions that can cause\n   ************* ..extra time during simulation. Each construction is calculated by the algorithm indicated in the HeatBalanceAlgorithm\n   ************* ..object. You may remove the constructions indicated (when you use the DisplayExtraWarnings option).\n   *************\n   ************* EnergyPlus Warmup Error Summary. During Warmup: 0 Warning; 0 Severe Errors.\n   ************* EnergyPlus Sizing Error Summary. During Sizing: 31 Warning; 0 Severe Errors.\n   ************* EnergyPlus Completed Successfully-- 547 Warning; 0 Severe Errors; Elapsed Time=00hr 00min 48.91sec\n",
   "file_format_version" : "0.0.1",
   "file_paths" : [ "../weather", "../seeds", "../seed" ],
   "hash" : "C248830A",
   "measure_paths" : [ "../measures" ],
   "name" : "LHS Autogenerated 818",
   "osa_id" : "4fef0e0f-5396-4c55-a6e1-2cd6803db3ab",
   "osd_id" : "ef3a99a0-d199-4de2-a75b-c9d67d7c6c31",
   "run_directory" : "./run",
   "seed_file" : "seed.osm",
   "started_at" : "20170710T191622Z",
   "steps" : [
      {
         "arguments" : {
            "__SKIP__" : false,
            "building_type" : "Warehouse",
            "climate_zone" : "NECB HDD Method",
            "epw_file" : "CAN_SK_North.Battleford.718760_CWEC.epw",
            "template" : "NECB 2011"
         },
         "measure_dir_name" : "create_prototype_building",
         "name" : "create_prototype_building",
         "result" : {
            "completed_at" : "20170710T191716Z",
            "measure_class_name" : "CreatePrototypeBuilding",
            "measure_display_name" : "Create Prototype Building",
            "measure_name" : "create_prototype_building",
            "measure_taxonomy" : "Whole Building.Space Types",
            "measure_type" : "ModelMeasure",
            "measure_uid" : "ae90fsd7-a651-467a-bc8d-29d310b0f937",
            "measure_version_id" : "c6ec5c18-5595-459f-a082-09a19c8c869c",
            "measure_version_modified" : "20170519T182315Z",
            "measure_xml_checksum" : "057E8D9D",
            "started_at" : "20170710T191624Z",
            "stderr" : "",
            "stdout" : "[OpenStudio.Measure] <0> OSArgumentVector is deprecated, use OpenStudio::Measure::OSArgumentVector instead.\n[openstudio.EpwFile] <0> Successive data points (1988-Jan-31 to 1974-Feb-01, ending on line 753) are greater than 1 day apart in EPW file '/usr/local/bundle/bundler/gems/openstudio-standards-f448df66933d/openstudio-standards/data/weather/CAN_SK_North.Battleford.718760_CWEC.epw'. Data will be treated as typical (TMY)\n[openstudio.setFileExtension] <0> Path p, '/usr/local/bundle/bundler/gems/openstudio-standards-f448df66933d/openstudio-standards/data/weather/CAN_SK_North.Battleford.718760_CWEC.ddy', has an unexpected file extension. Was expecting 'idf'.\n[openstudio.setFileExtension] <0> Path p, '/usr/local/bundle/bundler/gems/openstudio-standards-f448df66933d/openstudio-standards/data/weather/CAN_SK_North.Battleford.718760_CWEC.ddy', has an unexpected file extension. Was expecting 'idf'.\n[openstudio.EpwFile] <0> Successive data points (1988-Jan-31 to 1974-Feb-01, ending on line 753) are greater than 1 day apart in EPW file '/usr/local/bundle/bundler/gems/openstudio-standards-f448df66933d/openstudio-standards/data/weather/CAN_SK_North.Battleford.718760_CWEC.epw'. Data will be treated as typical (TMY)\n[openstudio.weather.Model] <0> Could not find ground temperatures; will use generic temperatures, which will skew results.\n[openstudio.setFileExtension] <0> Path p, '/usr/local/bundle/bundler/gems/openstudio-standards-f448df66933d/openstudio-standards/data/weather/CAN_SK_North.Battleford.718760_CWEC.ddy', has an unexpected file extension. Was expecting 'idf'.\n[openstudio.EpwFile] <0> Successive data points (1988-Jan-31 to 1974-Feb-01, ending on line 753) are greater than 1 day apart in EPW file '/usr/local/bundle/bundler/gems/openstudio-standards-f448df66933d/openstudio-standards/data/weather/CAN_SK_North.Battleford.718760_CWEC.epw'. Data will be treated as typical (TMY)\n[openstudio.setFileExtension] <0> Path p, '/usr/local/bundle/bundler/gems/openstudio-standards-f448df66933d/openstudio-standards/data/weather/CAN_SK_North.Battleford.718760_CWEC.ddy', has an unexpected file extension. Was expecting 'idf'.\n[openstudio.setFileExtension] <0> Path p, '/usr/local/bundle/bundler/gems/openstudio-standards-f448df66933d/openstudio-standards/data/weather/CAN_SK_North.Battleford.718760_CWEC.ddy', has an unexpected file extension. Was expecting 'idf'.\n[openstudio.EpwFile] <0> Successive data points (1988-Jan-31 to 1974-Feb-01, ending on line 753) are greater than 1 day apart in EPW file '/usr/local/bundle/bundler/gems/openstudio-standards-f448df66933d/openstudio-standards/data/weather/CAN_SK_North.Battleford.718760_CWEC.epw'. Data will be treated as typical (TMY)\n[openstudio.setFileExtension] <0> Path p, '/usr/local/bundle/bundler/gems/openstudio-standards-f448df66933d/openstudio-standards/data/weather/CAN_SK_North.Battleford.718760_CWEC.ddy', has an unexpected file extension. Was expecting 'idf'.\n[openstudio.setFileExtension] <0> Path p, '/usr/local/bundle/bundler/gems/openstudio-standards-f448df66933d/openstudio-standards/data/weather/CAN_SK_North.Battleford.718760_CWEC.ddy', has an unexpected file extension. Was expecting 'idf'.\n[utilities.idf.WorkspaceObject] <0> Object of type 'Schedule:Constant' and named 'Always Off Discrete', points to an object named OnOff 1 from field 1, but that object cannot be located.\n[utilities.idf.WorkspaceObject] <0> Object of type 'Schedule:Constant' and named 'Always On Continuous', points to an object named Fractional 1 from field 1, but that object cannot be located.\n[utilities.idf.WorkspaceObject] <0> Object of type 'Schedule:Constant' and named 'Always Off Discrete', points to an object named OnOff 1 from field 1, but that object cannot be located.\n[utilities.idf.WorkspaceObject] <0> Object of type 'Schedule:Constant' and named 'Always On Continuous', points to an object named Fractional 1 from field 1, but that object cannot be located.\n[openstudio.standards.Fan] <0> For Fan Constant Volume 1, there is no greater nominal HP.  Use the efficiency of the largest motor category.\n[openstudio.standards.Fan] <0> For Fan Constant Volume 2, there is no greater nominal HP.  Use the efficiency of the largest motor category.\n[openstudio.standards.Fan] <0> For Fan Constant Volume 3, there is no greater nominal HP.  Use the efficiency of the largest motor category.\n[openstudio.EpwFile] <0> Successive data points (1988-Jan-31 to 1974-Feb-01, ending on line 753) are greater than 1 day apart in EPW file '/usr/local/bundle/bundler/gems/openstudio-standards-f448df66933d/openstudio-standards/data/weather/CAN_SK_North.Battleford.718760_CWEC.epw'. Data will be treated as typical (TMY)\n[openstudio.setFileExtension] <0> Path p, '/usr/local/bundle/bundler/gems/openstudio-standards-f448df66933d/openstudio-standards/data/weather/CAN_SK_North.Battleford.718760_CWEC.ddy', has an unexpected file extension. Was expecting 'idf'.\n[openstudio.setFileExtension] <0> Path p, '/usr/local/bundle/bundler/gems/openstudio-standards-f448df66933d/openstudio-standards/data/weather/CAN_SK_North.Battleford.718760_CWEC.ddy', has an unexpected file extension. Was expecting 'idf'.\n[openstudio.EpwFile] <0> Successive data points (1988-Jan-31 to 1974-Feb-01, ending on line 753) are greater than 1 day apart in EPW file '/usr/local/bundle/bundler/gems/openstudio-standards-f448df66933d/openstudio-standards/data/weather/CAN_SK_North.Battleford.718760_CWEC.epw'. Data will be treated as typical (TMY)\n[openstudio.setFileExtension] <0> Path p, '/usr/local/bundle/bundler/gems/openstudio-standards-f448df66933d/openstudio-standards/data/weather/CAN_SK_North.Battleford.718760_CWEC.ddy', has an unexpected file extension. Was expecting 'idf'.\n[openstudio.setFileExtension] <0> Path p, '/usr/local/bundle/bundler/gems/openstudio-standards-f448df66933d/openstudio-standards/data/weather/CAN_SK_North.Battleford.718760_CWEC.ddy', has an unexpected file extension. Was expecting 'idf'.\n[openstudio.EpwFile] <0> Successive data points (1988-Jan-31 to 1974-Feb-01, ending on line 753) are greater than 1 day apart in EPW file '/usr/local/bundle/bundler/gems/openstudio-standards-f448df66933d/openstudio-standards/data/weather/CAN_SK_North.Battleford.718760_CWEC.epw'. Data will be treated as typical (TMY)\n[openstudio.setFileExtension] <0> Path p, '/usr/local/bundle/bundler/gems/openstudio-standards-f448df66933d/openstudio-standards/data/weather/CAN_SK_North.Battleford.718760_CWEC.ddy', has an unexpected file extension. Was expecting 'idf'.\n[openstudio.setFileExtension] <0> Path p, '/usr/local/bundle/bundler/gems/openstudio-standards-f448df66933d/openstudio-standards/data/weather/CAN_SK_North.Battleford.718760_CWEC.ddy', has an unexpected file extension. Was expecting 'idf'.\n[openstudio.standards.Fan] <0> For Fan Constant Volume 1, there is no greater nominal HP.  Use the efficiency of the largest motor category.\n[openstudio.standards.Fan] <0> For Fan Constant Volume 2, there is no greater nominal HP.  Use the efficiency of the largest motor category.\n[openstudio.standards.Fan] <0> For Fan Constant Volume 3, there is no greater nominal HP.  Use the efficiency of the largest motor category.\n",
            "step_errors" : [],
            "step_files" : [],
            "step_info" : [
               "Started adding geometry",
               "Finished adding geometry",
               "Started adding weather file for climate zone: NECB HDD Method.",
               "Template =",
               "Setting Zone3 Bulk Storage to Space Function.Warehouse - med/blk",
               "Setting Zone2 Fine Storage to Space Function.Warehouse - fine",
               "Setting Zone1 Office to Space Function.Office - enclosed",
               "Started applying space types (loads)",
               "Space Function Office - enclosed had no people, one has been created.",
               "Space Function Office - enclosed set occupancy to 4.65 people/1000 ft^2.",
               "Space Function Office - enclosed had no lights, one has been created.",
               "Space Function Office - enclosed set LPD to 1.105536975 W/ft^2.",
               "Space Function Office - enclosed had no electric equipment, one has been created.",
               "Space Function Office - enclosed set electric EPD to 0.696767001 W/ft^2.",
               "Space Function Office - enclosed had no ventilation specification, one has been created.",
               "Space Function Office - enclosed set ventilation per area to 0.085 cfm/ft^2.",
               "Space Function Office - enclosed had no infiltration objects, one has been created.",
               "Space Function Office - enclosed set infiltration to 0.0 per ft^2 exterior surface area.",
               "Space Function Office - enclosed set occupancy schedule to NECB-A-Occupancy.",
               "Space Function Office - enclosed set occupant activity schedule to NECB-Activity.",
               "Space Function Office - enclosed set lighting schedule to NECB-A-Lighting.",
               "Space Function Office - enclosed set electric equipment schedule to NECB-A-Electric-Equipment.",
               "Space Function Office - enclosed set infiltration schedule to Always On.",
               "Space Function Office - enclosed set heating setpoint schedule to NECB-A-Thermostat Setpoint-Heating.",
               "Space Function Office - enclosed set cooling setpoint schedule to NECB-A-Thermostat Setpoint-Cooling.",
               "Space Function Warehouse - fine had no people, one has been created.",
               "Space Function Warehouse - fine set occupancy to 1.86 people/1000 ft^2.",
               "Space Function Warehouse - fine had no lights, one has been created.",
               "Space Function Warehouse - fine set LPD to 0.947603122 W/ft^2.",
               "Space Function Warehouse - fine had no electric equipment, one has been created.",
               "Space Function Warehouse - fine set electric EPD to 0.092902267 W/ft^2.",
               "Space Function Warehouse - fine had no ventilation specification, one has been created.",
               "Space Function Warehouse - fine set ventilation per area to 0.06 cfm/ft^2.",
               "Space Function Warehouse - fine had no infiltration objects, one has been created.",
               "Space Function Warehouse - fine set infiltration to 0.0 per ft^2 exterior surface area.",
               "Space Function Warehouse - fine set occupancy schedule to NECB-A-Occupancy.",
               "Space Function Warehouse - fine set occupant activity schedule to NECB-Activity.",
               "Space Function Warehouse - fine set lighting schedule to NECB-A-Lighting.",
               "Space Function Warehouse - fine set electric equipment schedule to NECB-A-Electric-Equipment.",
               "Space Function Warehouse - fine set infiltration schedule to Always On.",
               "Space Function Warehouse - fine set heating setpoint schedule to NECB-A-Thermostat Setpoint-Heating.",
               "Space Function Warehouse - fine set cooling setpoint schedule to NECB-A-Thermostat Setpoint-Cooling.",
               "Space Function Warehouse - med/blk had no people, one has been created.",
               "Space Function Warehouse - med/blk set occupancy to 0.93 people/1000 ft^2.",
               "Space Function Warehouse - med/blk had no lights, one has been created.",
               "Space Function Warehouse - med/blk set LPD to 0.594574508 W/ft^2.",
               "Space Function Warehouse - med/blk had no electric equipment, one has been created.",
               "Space Function Warehouse - med/blk set electric EPD to 0.092902267 W/ft^2.",
               "Space Function Warehouse - med/blk had no ventilation specification, one has been created.",
               "Space Function Warehouse - med/blk set ventilation per area to 0.06 cfm/ft^2.",
               "Space Function Warehouse - med/blk had no infiltration objects, one has been created.",
               "Space Function Warehouse - med/blk set infiltration to 0.0 per ft^2 exterior surface area.",
               "Space Function Warehouse - med/blk set occupancy schedule to NECB-A-Occupancy.",
               "Space Function Warehouse - med/blk set occupant activity schedule to NECB-Activity.",
               "Space Function Warehouse - med/blk set lighting schedule to NECB-A-Lighting.",
               "Space Function Warehouse - med/blk set electric equipment schedule to NECB-A-Electric-Equipment.",
               "Space Function Warehouse - med/blk set infiltration schedule to Always On.",
               "Space Function Warehouse - med/blk set heating setpoint schedule to NECB-A-Thermostat Setpoint-Heating.",
               "Space Function Warehouse - med/blk set cooling setpoint schedule to NECB-A-Thermostat Setpoint-Cooling.",
               "Finished applying space types (loads)",
               "Started applying constructions",
               "Adding construction set: NECB 2011-NECB HDD Method-Warehouse--is_residentialNo",
               "Adding construction Typical Insulated Exterior Mass Floor R-15.63.",
               "Adding construction Typical Insulated Exterior Mass Wall R-12.5.",
               "Adding construction Typical Insulated Metal Building Roof R-20.41.",
               "Adding construction Typical Interior Floor.",
               "Adding construction Typical Interior Wall.",
               "Adding construction Typical Interior Ceiling.",
               "Adding construction Typical Insulated Carpeted 6in Slab Floor.",
               "Adding construction U 0.55 SHGC 0.31 Dbl Ref-D Tint 6mm/6mm Air.",
               "Adding construction Typical Insulated Metal Door R-1.43.",
               "Adding construction U 0.35 SHGC 0.35 Dbl LoE (e2-.1) Tint 6mm/13mm Air.",
               "Adding construction Typical Overhead Door R-2.0.",
               "Adding construction U 0.48 SHGC 0.40 Dbl Ref-D Clr 6mm/13mm.",
               "Adding construction Typical Interior Window.",
               "Adding construction Typical Interior Door.",
               "Adding construction Typical Interior Partition.",
               "Finished applying constructions",
               "WWR NonRes = 0%; window = 0 ft2, wall = 0 ft2.",
               "WWR Res = 0%; window = 0 ft2, wall = 0 ft2.",
               "WWR Semiheated = 0%; window = 0 ft2, wall = 0 ft2.",
               "The skylight to roof ratios (SRRs) are: NonRes: 2%, Res: 0%.",
               "Started creating thermal zones",
               "Finished creating thermal zones",
               "Running simulation /mnt/openstudio/analysis_4fef0e0f-5396-4c55-a6e1-2cd6803db3ab/data_point_ef3a99a0-d199-4de2-a75b-c9d67d7c6c31/run/000_create_prototype_building/output/Warehouse-NECB 2011-NECB HDD Method-CAN_SK_North.Battleford.718760_CWEC.epw/SR0.",
               "Finished run.",
               "Started Adding HVAC",
               "Finished adding HVAC",
               "Started Adding Service Water Heating",
               "Adding service water loop.",
               "Adding water heater.",
               "Template =",
               "Finished adding Service Water Heating",
               "Set sizing factors to 1.3 for heating and 1.3 for cooling.",
               "Running simulation /mnt/openstudio/analysis_4fef0e0f-5396-4c55-a6e1-2cd6803db3ab/data_point_ef3a99a0-d199-4de2-a75b-c9d67d7c6c31/run/000_create_prototype_building/output/Warehouse-NECB 2011-NECB HDD Method-CAN_SK_North.Battleford.718760_CWEC.epw/SR1.",
               "Finished run.",
               "Started applying multizone vav OA sizing.",
               "Finished applying multizone vav OA sizing.",
               "Started applying prototype HVAC assumptions.",
               "For Fan Constant Volume 1: allowed_hp = 1.01HP; motor eff = 61.5%; total fan eff = 40% based on 1212 cfm.",
               "For Fan Constant Volume 2: allowed_hp = 9.33HP; motor eff = 61.5%; total fan eff = 40% based on 13637 cfm.",
               "For Fan Constant Volume 3: allowed_hp = 4.03HP; motor eff = 61.5%; total fan eff = 40% based on 5886 cfm.",
               "Sp-Zone2 Fine Storage Sys-4 Flr-1 Sch-A HPlcmt-south ZN NECB System 4 PSZ requires an economizer because the total cooling capacity of 156914 Btu/hr exceeds the minimum capacity of 68243 Btu/hr.",
               "Sp-Zone3 Bulk Storage Sys-4 Flr-1 Sch-A HPlcmt-east ZN NECB System 4 PSZ requires an economizer because the total cooling capacity of 363510 Btu/hr exceeds the minimum capacity of 68243 Btu/hr.",
               "Sp-Zone1 Office Sys-3 Flr-1 Sch-A HPlcmt-south ZN NECB System 3 PSZ does not require an economizer because the total cooling capacity of 32300 Btu/hr is less than the minimum capacity of 68243 Btu/hr.",
               "Finished applying prototype HVAC assumptions.",
               "Started applying HVAC efficiency standards.",
               "For Sp-Zone1 Office Sys-3 Flr-1 Sch-A HPlcmt-south ZN NECB System 3 PSZ, ERV not required based on 0% OA flow, design supply air flow of 1212cfm, and climate zone NECB HDD Method.",
               "For Sp-Zone1 Office Sys-3 Flr-1 Sch-A HPlcmt-south ZN NECB System 3 PSZ, ERV not required based on exhaust heat content.",
               "For NECB 2011 NECB HDD Method:  Sp-Zone1 Office Sys-3 Flr-1 Sch-A HPlcmt-south ZN NECB System 3 PSZ: DCV is not required for any system.",
               "For Sp-Zone1 Office Sys-3 Flr-1 Sch-A HPlcmt-south ZN NECB System 3 PSZ: Annual occupied hours = 2860 hr/yr, assuming a 0.15 occupancy threshold.  This schedule will be used as the HVAC operation schedule.",
               "For Sp-Zone1 Office Sys-3 Flr-1 Sch-A HPlcmt-south ZN NECB System 3 PSZ: Setting motorized OA damper schedule to Sp-Zone1 Office Sys-3 Flr-1 Sch-A HPlcmt-south ZN NECB System 3 PSZ Occ Sch.",
               "For Sp-Zone2 Fine Storage Sys-4 Flr-1 Sch-A HPlcmt-south ZN NECB System 4 PSZ, ERV not required based on 0% OA flow, design supply air flow of 5886cfm, and climate zone NECB HDD Method.",
               "For Sp-Zone2 Fine Storage Sys-4 Flr-1 Sch-A HPlcmt-south ZN NECB System 4 PSZ, ERV not required based on exhaust heat content.",
               "For NECB 2011 NECB HDD Method:  Sp-Zone2 Fine Storage Sys-4 Flr-1 Sch-A HPlcmt-south ZN NECB System 4 PSZ: DCV is not required for any system.",
               "For Sp-Zone2 Fine Storage Sys-4 Flr-1 Sch-A HPlcmt-south ZN NECB System 4 PSZ: Annual occupied hours = 2860 hr/yr, assuming a 0.15 occupancy threshold.  This schedule will be used as the HVAC operation schedule.",
               "For Sp-Zone2 Fine Storage Sys-4 Flr-1 Sch-A HPlcmt-south ZN NECB System 4 PSZ: Because the system has an economizer, it requires a motorized OA damper.",
               "For Sp-Zone2 Fine Storage Sys-4 Flr-1 Sch-A HPlcmt-south ZN NECB System 4 PSZ: Setting motorized OA damper schedule to Sp-Zone2 Fine Storage Sys-4 Flr-1 Sch-A HPlcmt-south ZN NECB System 4 PSZ Occ Sch.",
               "For Sp-Zone3 Bulk Storage Sys-4 Flr-1 Sch-A HPlcmt-east ZN NECB System 4 PSZ, ERV not required based on 0% OA flow, design supply air flow of 13637cfm, and climate zone NECB HDD Method.",
               "For Sp-Zone3 Bulk Storage Sys-4 Flr-1 Sch-A HPlcmt-east ZN NECB System 4 PSZ, ERV not required based on exhaust heat content.",
               "For NECB 2011 NECB HDD Method:  Sp-Zone3 Bulk Storage Sys-4 Flr-1 Sch-A HPlcmt-east ZN NECB System 4 PSZ: DCV is not required for any system.",
               "For Sp-Zone3 Bulk Storage Sys-4 Flr-1 Sch-A HPlcmt-east ZN NECB System 4 PSZ: Annual occupied hours = 2860 hr/yr, assuming a 0.15 occupancy threshold.  This schedule will be used as the HVAC operation schedule.",
               "For Sp-Zone3 Bulk Storage Sys-4 Flr-1 Sch-A HPlcmt-east ZN NECB System 4 PSZ: Because the system has an economizer, it requires a motorized OA damper.",
               "For Sp-Zone3 Bulk Storage Sys-4 Flr-1 Sch-A HPlcmt-east ZN NECB System 4 PSZ: Setting motorized OA damper schedule to Sp-Zone3 Bulk Storage Sys-4 Flr-1 Sch-A HPlcmt-east ZN NECB System 4 PSZ Occ Sch.",
               "For Fan Constant Volume 1: motor nameplate = 0.7547605698527438HP, motor eff = 61.5%.",
               "For Fan Constant Volume 2: motor nameplate = 8HP, motor eff = 61.5%.",
               "For Fan Constant Volume 3: motor nameplate = 4HP, motor eff = 61.5%.",
               "For Service Water Loop Pump: brake hp = 0.0HP, motor nameplate = 0.1HP, motor eff = 70.0%.",
               "For Pump Variable Speed 1: brake hp = 1.03HP, motor nameplate = 1.5HP, motor eff = 86.5%.",
               "For NECB 2011: Coil Cooling DX Single Speed 1: AirCooled All Other Single Package Capacity = 32kBtu/hr; SEER = 14.0",
               "For NECB 2011: Coil Cooling DX Single Speed 2: AirCooled All Other Single Package Capacity = 364kBtu/hr; EER = 8.21",
               "For NECB 2011: Coil Cooling DX Single Speed 3: AirCooled All Other Single Package Capacity = 157kBtu/hr; EER = 9.7",
               "For NECB 2011: Primary Boiler: Gas Hot Water Capacity = 383kBtu/hr; Thermal Efficiency = 0.83",
               "For NECB 2011: Secondary Boiler: Gas Hot Water Capacity = 383kBtu/hr; Thermal Efficiency = 0.83",
               "For NECB 2011: 40.0gal NaturalGas Water Heater - 40kBtu/hr 0.82 Therm Eff; thermal efficiency = 0.82, skin-loss UA = 6Btu/hr",
               "Finished applying HVAC efficiency standards.",
               "Started adding daylighting controls.",
               "Finished adding daylighting controls.",
               "Total Time = 51sec."
            ],
            "step_result" : "Success",
            "step_values" : [
               {
                  "name" : "building_type",
                  "value" : "Warehouse"
               },
               {
                  "name" : "template",
                  "value" : "NECB 2011"
               },
               {
                  "name" : "climate_zone",
                  "value" : "NECB HDD Method"
               },
               {
                  "name" : "epw_file",
                  "value" : "CAN_SK_North.Battleford.718760_CWEC.epw"
               }
            ],
            "step_warnings" : [
               "[openstudio.EpwFile] Successive data points (1988-Jan-31 to 1974-Feb-01, ending on line 753) are greater than 1 day apart in EPW file '/usr/local/bundle/bundler/gems/openstudio-standards-f448df66933d/openstudio-standards/data/weather/CAN_SK_North.Battleford.718760_CWEC.epw'. Data will be treated as typical (TMY)",
               "[openstudio.EpwFile] Successive data points (1988-Jan-31 to 1974-Feb-01, ending on line 753) are greater than 1 day apart in EPW file '/usr/local/bundle/bundler/gems/openstudio-standards-f448df66933d/openstudio-standards/data/weather/CAN_SK_North.Battleford.718760_CWEC.epw'. Data will be treated as typical (TMY)",
               "[openstudio.weather.Model] Could not find ground temperatures; will use generic temperatures, which will skew results.",
               "[openstudio.EpwFile] Successive data points (1988-Jan-31 to 1974-Feb-01, ending on line 753) are greater than 1 day apart in EPW file '/usr/local/bundle/bundler/gems/openstudio-standards-f448df66933d/openstudio-standards/data/weather/CAN_SK_North.Battleford.718760_CWEC.epw'. Data will be treated as typical (TMY)",
               "[openstudio.EpwFile] Successive data points (1988-Jan-31 to 1974-Feb-01, ending on line 753) are greater than 1 day apart in EPW file '/usr/local/bundle/bundler/gems/openstudio-standards-f448df66933d/openstudio-standards/data/weather/CAN_SK_North.Battleford.718760_CWEC.epw'. Data will be treated as typical (TMY)",
               "[openstudio.standards.Fan] For Fan Constant Volume 1, there is no greater nominal HP.  Use the efficiency of the largest motor category.",
               "[openstudio.standards.Fan] For Fan Constant Volume 2, there is no greater nominal HP.  Use the efficiency of the largest motor category.",
               "[openstudio.standards.Fan] For Fan Constant Volume 3, there is no greater nominal HP.  Use the efficiency of the largest motor category.",
               "[openstudio.EpwFile] Successive data points (1988-Jan-31 to 1974-Feb-01, ending on line 753) are greater than 1 day apart in EPW file '/usr/local/bundle/bundler/gems/openstudio-standards-f448df66933d/openstudio-standards/data/weather/CAN_SK_North.Battleford.718760_CWEC.epw'. Data will be treated as typical (TMY)",
               "[openstudio.EpwFile] Successive data points (1988-Jan-31 to 1974-Feb-01, ending on line 753) are greater than 1 day apart in EPW file '/usr/local/bundle/bundler/gems/openstudio-standards-f448df66933d/openstudio-standards/data/weather/CAN_SK_North.Battleford.718760_CWEC.epw'. Data will be treated as typical (TMY)",
               "[openstudio.EpwFile] Successive data points (1988-Jan-31 to 1974-Feb-01, ending on line 753) are greater than 1 day apart in EPW file '/usr/local/bundle/bundler/gems/openstudio-standards-f448df66933d/openstudio-standards/data/weather/CAN_SK_North.Battleford.718760_CWEC.epw'. Data will be treated as typical (TMY)",
               "[openstudio.standards.Fan] For Fan Constant Volume 1, there is no greater nominal HP.  Use the efficiency of the largest motor category.",
               "[openstudio.standards.Fan] For Fan Constant Volume 2, there is no greater nominal HP.  Use the efficiency of the largest motor category.",
               "[openstudio.standards.Fan] For Fan Constant Volume 3, there is no greater nominal HP.  Use the efficiency of the largest motor category."
            ]
         }
      },
      {
         "arguments" : {
            "__SKIP__" : false
         },
         "measure_dir_name" : "view_model",
         "name" : "view_model",
         "result" : {
            "completed_at" : "20170710T191716Z",
            "measure_class_name" : "ViewModel",
            "measure_display_name" : "ViewModel",
            "measure_name" : "view_model",
            "measure_taxonomy" : "Reporting.QAQC",
            "measure_type" : "ModelMeasure",
            "measure_uid" : "f4669f10-fda5-489d-8e1c-7ca3c2d40378",
            "measure_version_id" : "f4975c5f-7c25-42a2-927b-02d99b4427ef",
            "measure_version_modified" : "20170526T150340Z",
            "measure_xml_checksum" : "1E1F8B97",
            "started_at" : "20170710T191716Z",
            "stderr" : "",
            "stdout" : "[OpenStudio.Measure] <0> OSArgumentVector is deprecated, use OpenStudio::Measure::OSArgumentVector instead.\n",
            "step_errors" : [],
            "step_files" : [
               "/mnt/openstudio/analysis_4fef0e0f-5396-4c55-a6e1-2cd6803db3ab/data_point_ef3a99a0-d199-4de2-a75b-c9d67d7c6c31/run/001_view_model/report.html",
               "/mnt/openstudio/analysis_4fef0e0f-5396-4c55-a6e1-2cd6803db3ab/data_point_ef3a99a0-d199-4de2-a75b-c9d67d7c6c31/run/001_view_model/report.json"
            ],
            "step_final_condition" : "Report written to <a href='file:////mnt/openstudio/analysis_4fef0e0f-5396-4c55-a6e1-2cd6803db3ab/data_point_ef3a99a0-d199-4de2-a75b-c9d67d7c6c31/run/001_view_model/report.html'>report.html</a>.",
            "step_info" : [ "No changes made to the model." ],
            "step_result" : "NA",
            "step_values" : [
               {
                  "name" : "view_model_html_zip",
                  "value" : "eJzsfVuTG7mR7rsj/B94tA+eOdGgcL/I642wx571RtgzjpF3vd4TGxO4SrRbTS2bmss65r+fzLqwq9hVZHVrqCZHZY+aKBRQhcxKfMgEEol//j+//fKzP//1T79bvN6+uf6Xn//sn3e/2Sf83a621/lf/mOVv138cZ3y9T8/r3Pg1pu89Yv42m9u8/ZXz/79z58T+2zxfHfnxr/Jv3r2DdR8u95sny3i+mabb6Dkt6u0ff2rlL9ZxUyqi6vF6ma1Xflrchv9df4Vu1q8u82b6soHyLhZN0++jZvV2+3idhN/9ez1dvv29sXz5zHd/O12Ga/X71K59pu8jOs3z/3f/HfPr1fh9vn29Sbn5d9un28May7erG4g49m//PPz+nkHnrzc+G9frbbVM99s0nod+g/M3/k3b6/z7XO4Rgo36+vb519uwmr7WXM19U2HaEh+S169Wz2nS4XpJaQfQsShR7+69W+fsyXTS/b8z9/mfPOH1XaYQ89bmQjr9H31tu3313mx/f4tfOdt/m77PN5ClZ//7J+w4C1593bxj5//bLEIPv791Wb97iaRuL5eb178U0rpl9Wd9SbBZ974tHp3+8K+/a7KTavbt9f++xc365tcZbz1Ka1uXr2gC/X2uwWjTbn1Wx9X2+9f0KVVdbn1LUjR+uaFD7fr63fbuvZ1LtsXqq2E7ST+evXq5gXeqPL+l6xuUv7uBaNw+QO0v2omCX7TEFA18wWDl8NzV2nxT8aYA28M6+12/eYFb99ZtWB39Xa9go6wIfkb6A23L/z19f5bCQqSX93k5v33GdJ/RCd/qDnbjb9p8l/n1avX2wWI0e0i+9t8Vd8s682bXub6bfcS2393Xbd2CRxcbzK5e3jd1oe+bPF/Vm8QH/zNtnnwHRu2q/j3MRFqv0D9khdMNdyt8OQF3/H6PkP23gHy0Gk5Nu7FZr312/yJoDTlV5/+sneTrDerV6ubF8iinQC1H2h1cw1fjYTrdfz7gQ+yR0KHZUMcappcN6puaks0CGSHfYvn/3fx+eq7BVRfpI1/Bc18tfj2db5Z1HXT4v8+HyTUtXR23jONRdx0qgJWICDc4RCkfv6zb6AXrW+/BtTyi18t/vEMxwa8ePbiH8++yZtbIPvZC7kUV88QSJ69ePZl+FuO22dXz15l6AF+u95g5tt883L7Lq3WcCO8W10jILyEe99/AcPM7bMX/+/Zb5rcRZW9YM/+G0qiyEDeb9bf4fsA1f7zGeAFvcLkX++S/9Um/XdQQKqlYfB1qLBMammqfCjNKHwU46iTVjjOeZUPVe1SCeGssFQqSSmUv16v//7rLb6rTf+1k/6vTvqrZy+UWkqqlFRMKGac/uEHpH0NjNqsKtL+8ezdu1UCLjCeQuQlECxIJC+OuEIpKZpJ471PWYVnO0b+a/2M7yGnw3DoVNVDuVo6aKpccm2uCFLfz3FLJmWbh7cHcuAPMBlw4I2/xmfCxbtvmkTx9XvoFb1iV/wKf/mVgDvVGA/cvALl4HYVML3dvMtXz6K/3b587dP62zZnk2NefZPbzAKvgdy0fge1Xq5STnVB4Ngdj4TLTqlMjNSZSJEicVQIQrlW1FDOgvJTeVQJgr3C7yuviKBLaVxF+f2cih/NdVOtk3V+XJIqlEQliVlaIpVlxHPvSLYOxF5zKmWZyqUOQ1pONJe1xGBGT6g6GecoQTxmzrhhRHpPiQwyE18s9DfjnIw2ZB/ZI3jTF47BzK4Q7QnV+XEpB6GTEsQ6pUGCjCAuSU6KSJlLq7124iFcEksqLUgIWyrG76jfvz7YCZucBqevuo8VS6funtItUb9md7+pIMySUdt57911W8ItldSdEnvXVi6tFd0aAzl8KZsOUde5u25KaBga2V2Bu8v2vl4a2Wnn/rUyS217NQZy1JLLDo87100JI5bCmLsSneu2hFpa1uHw/rW0S816tA/kgA1iunWq64dKfvUrroCLV/Cs5ldewZe5MpDCX3vlqvK2KW+b8gyTTaKuwRimJ9XBCqb6NdWLsVGsbhX8IKVXTF4BT+CZdbJ6dp2s2wmF4ELWdUSTkNXTmL5ipmoApOoWQKJpgsV0k2ra7TCtJ1ec3njXJKsX1Ek7sfG0aQR8JmQBKFBcVC3DVNUyzpuWQQFIy6YCm9JaVyeadtG2WVPawJpk+0WOfmssSyc0dPx7fNh2nPbzctQK6w8p2w8p2w+pMd2kal5wg2k9ueLkxnNTJ+sX1Ek9sfG0ST5INrECm9DaqmF01y7aNmtKG34UmRhq6Pj3+LDt+CCf1zZJaC1KuID/6iFDtGOGaAcNKCDorrXux/u8g22o2CrodLYKumPrwYaOf94P244P8Xkr1OId1Koxtkk+7KNjBbcHn3yHghP4+xSNeUImDw/qtkk+rL/xnfgcHM2mcmBav3x/un6cvvMexD9UFi+JthOK9slt5Gi5NCpnEqkFG5k5ToJQlDhvo3cuMS3p+9nIw+bt/mVV/uxmEFIKwjpgR6RCgbGnNQlaKVIEs8GbQoXkj+DOfRu6Y3fvW+Ydq/vs+FOiziU5TbiTID3RZeAP88Q7o5gpAmh70DzU/ZmNiTMZdY2z4w/V1HInJKHOOCJdiSRkbaH5XDvFgwryMTNQ92c/OjMm+3MqnfmSs+OPMdEwpQqJjlEiPfwJVHtCjYgyRSkSewz6PHgKqqpwdtwRmWZurITmWUFk4I64DBCkM1eGs5yido/gTmcO6/481/5M2HvMcp1+fpcFB6NGINYGS2QqhtiUCoFu5QqPrijxGOl5+MxhXePs+CMpLrlxTpIJ0LuyBGC23hDnPGeM8xjVZPQZWnkbXDUZWYercs6OQ4rpUgzlJAcKPcxzRRznlmTmk0tRwdgfH7GO0p277y8B8KVhbZamSyH3skAN0qBesqVRaldVwtjPRlZleiUHnqj40glgJfzdy+pXVXAFXb5bVcK3dbpXtcnqV5XQS6C/dKsKtdT9mnWOhFebw4S1vNsrWlWHQZ/aPV4xsbRwq8+Bvcy6ZL92XbCX1zCmX7lhzF5mXbJfuy7Yy2v41a/c8Gsvsy7Zr10X7OXVjOjXbfi4l3mfY205taRW7bPRVSrpHhv7mXVJTuHBYj8TnglW054c9jMHqzcv6jdpKLP9OL0mtR+nn1mX7L+ozew1qRX6fuZg9eZF/SYNZbafvNek9pP3M+uS/Re1mb0mtT2snzlYvXlRv0l1Zrc7Nh+jl1Vz3S653e8l/bzmO2rQKPeBqwczNXd6dQfzGn73njcAWw0VvbqDeQ1fes8bwLKmN/TqDubVPa7H0Tqvh7MD+NmwHT7QXqleVkNpJ6vhei+r4W8na+Dxrez121rTtMePRqL6TL9PQwvRPTBu2tfPbCv3xaKhhIG+5Pa/RT+zblD/mYPdpkWxfmb9QXp9YTCvrtx/d9tK1HL3RX+vZPMZ+iWHMtuv089sKDdL4czhzKZ67+2t9PSe2Wb2SzZC1S85NO63I3qf70NNahnSzxxSWFqG9Eq27exnDqoiTWZfvIbwuxXtfmb92XtyOJjXiEKn/wxl1ZpMj7uDeU3VHseHM+vaPT4M5g12vUEFEWs/wgdBwjXOV+LsJc6sOpwWrZf+eTMjSXHaslmdVvDDqmlLU63D6mZi1DWztdUEbne2tpolFdWVaiZMm1WGegK0M4crqol3Vl1VU+/ySihgHCahG4AwVWVRqK5k5T2hsIzEt0mQFXElq5lYaCwIczUZq6srfBvehTL4BAX/AdH4NiWuFFCGLcNfuMK34V34a+rpX3rnjKDwSfBHuStN6yT8albfx6smCb+7iWzbncgWzZwy0tYsswv86E3S1DRiEl5RT2ADcGlZp+SVrr+VbRPww3mVQg7LOiWRVEwhxXUe/Mi6BjLE1ClzpRvnETDftG2S8GxXCwJrU/BTzVVXP7wWE/hRtEohr3id4sjDKiVqrjr8MY37CAwphjdJfmVEI2RylzQ4LNZJFALeJOFGRYW4gk6AHIbmGl2lQFgBIg02CX6gJzaT5xa6eFMd6tq6UdAOW7MDVWRsHg5y9YOwQax+ZJUl6tewJmWrC1EvF1QWRyPBrk6CsPCmAEpPk7TmqnmRxQUJ23x8+LC2EmWBr8V3gtip5lXYAUSdKTG/fpDEqzaJ9PH6oXC1S4ItQptXAbX4BMeRARX1VlTLJHWKXbkmD36drEvauyT8OtUk1ZWrPn3FXtOkrlwlBA4vdkngCq0kgiH7q8a66pdR1qQp/mva6zppTDAq2gusUq/WKPy8tfsRpBGaaCWy1DQZd1fAKlrJMJX1i0R7IeqVmCqN73Hte2T3AgW+ehHIPdBimqRpHKx4ddWm4WX18yuvKN00sXaRqnpw5UAld2l8eFW3ElxaS3OzVoXdWtRJwEgtm6SoVsaqNSBXeTbQBsZck7R4VSc1XtULXxX6tUnsHrYWRLhqk8ZWLKvSNe9se2Gr1tYXFQm6vUCKq8+vUWhYncKFN9skcRioFvJQavRdGhOsgsBKHLFP1sNLXXmXhr+8TaNTBhdtFda9wI8p2wv8oNW4hKzivHmYqh6md/nQmGrVraqiuhdAWA1nvEqwajRiCDNYBJ+HvwrXEivMrNLVLYYXlYw4vKhGm8q7C1MwMMkmr7qo8ixeVFx3eNGkTANZGi92yapDVUnnml6FH4DWwldfVBIp2gucnaih09UUt+l6abFa12RiBwquc4G40HLENEM6qy910zkYbfNNdb2TCnOXRqiiJ5+t08pLx00iuYRMZCmehJw5icZxpqLUMaYHzGcOKJJDCuKgJnlf4zy7uc0gjGZKBpJZCUQar4l3uISgXYqU2+DT5F0Gw9M7Q6be4LTA0ETQ2fGLeqooB3HSNBciowbpMoyBdOVcaPJC8slzwcMTuIOTnwPTnD+Cdn/6lXGToOs5SYJKBgzGoIhTnhFDafBZCZHU5JXxwbmywXmtwbmyoVm1s+MXkyEXHTkpPEJvlDFCb0THAi21k0ox/aC1mIHJwePzO8Nzi2fKLwb9kdNItGeOyCQ9sT7DpcnQTUXxkubJ8jU4/T40RTo8lTswUX92/NLJR82SJUYCZknJBXFWRSJ04FFlG0ycvFtqeIJp8mzO0KzT2fEr+xJtMZ74EBWgfZLEpVBwn6LKijsfjJ3Mr4EppMHJoaFZpP25prPjVPSGGgf4zpnBcdFmAleFmJglaBXZUP3IcXFwHnk4c3ya8ez4FZh1gOegpUoO/DKagx6RBOE8gt4qBC38kSNjq5AOzWgPTX0PTJGfHbeojcwkr0hJDnC+yEKCL5ooKk0x0BWLm75feGDx5f4C0sB69v1V7/PjE6UpJQ6Anr0EqTKauAxdMctkpQVNP/rJvXB49Xho0Who1WtgmfnsuKVCYEo7SwrTuHfYOGK5T/gnUoG6w/Sdn0MLhEPL6gPL9PfXEc+OU5JpkWmxRPCI/U+AXkpZIWBmW50BiZVUjxkHBxewhjObxaZ765hnxysY6KCfRUa85agzWEk8wBbhxZiUqGJCTNaxBr1vBldUB9fBhlbMzo5frijJuDBEWFDfJdeGWBkp4S5q5Yx0RkzG9kGXo8HV4sGlzKFFz7PjF9cRFIRCSTaA7JIlhTvXDckgdUVZz1KY7O85vJg9eUF3aIX77PgFNjNzWQCsZwb90VKMEFE4iZwyJ0Mpjk+eDxz0fxr0VRr0fxrylDo7finlixPBk6KKITJ7QYIAnd6oxKEzuqiMftSoOORMN5hXM2vAnejseCUxgk62kWSbEOuhV3oBDKMsGgH6T/B6MnYNuyged3kb9nA8T375GIRVUhKVNPArREsQ5UHUggIOSprY5NnmYQfM4653w/6b5zk2WuW98WAbuoKzzUY54rxTRFuhwABKMFo+yu5pQf2+Y9+A+9991+Oz4xNPxmctFQkhgyZvQaQCM5FEBtqFc8VnORmzhp0/B13ghpwRh9xEz45fjmrracHZh5yIdDjPHLIgqagEI6I1IprH6RDtJNaQk9KgN9N9r6ez45Z1olgWLFEe1AjpUybBZ0O89JnpwrOaHmNqyDH1qDt3o54OOLCeHa+ychl4VUgB0QLJAiPRK50JcKr4wKhgdDKvBr24Bz2uB724h/y9z45fhgUtqeGgXjngF/eUWE4loTJYBsYP9NLJCD/kHTzowjrorXrPj/jseOWL9BJ6HjAHZyG0xF3I0hCjrRZBBqXDI1cv2imHQe/aQT/cAY/ds+MXizlYGyQRLgiQrcSJBSUeLGsrDedUxTJ5dWzA3XvATf7+Xp57+33OjkuAVqCzQ5fLimkiKXRDD0BPilOBFhal8pNn4gd8/Qc2Owxss7q/Gevs+BSjkFRrR7iudrlTS3zSllgprdOUCpEeNwoObYkazKtZNbAt5Ox4ZR3zLHtDinAgU9ZI4iP8scL7YELKZfo6/tDOkEGH/0Hf/nt7SM6OVyoAThnjiOe4toNbvIFNnOgSdIJbmU/Xrpq9pA3Be0E828vRSLHnGMPTwJiXQ2DEUTCbpYyBOJYz7j1VygUptJ+8e/lAXNz7PGnj4l7A/lyrTHG5CCKoZkSqHEgAFYEEVBeMLkVP9/i7t1t5WjDh/p7ms+OQgwGOGmCODwI0gewSATMP4CknwbPWJYfJETiajbh8yYQAVRFYYXUv7utA1m677vAm3gORZO9eA0ryUHjZvTd3SjVVpV1KzXrl+lltOVMFC+mVu59l+VKBNtivOpwplor131tnPVQ6qt/TxAGtXIyPxiOqU03IzTas4UAsorZ1tmrfgbefXN5LosJkVdAHBeTdge0eEujAzEZPmcyFscma7yF5H5fO4SyoenbYkLjAVVwYfzMAZxV9xmWhiXFJQYdkGCPjcbzq94DBvjLQp96jp5yeV8AYXnQhSoDBIKnw6D9nSaY8S2OM0nryaHwIpR4ESXXVs+OVp8HT4kGuvIJRGZ3xQ4owKhfqOc9gU6fJo3KfLQzsSLc3wNzPmhCmvKMY7r1BLo3t995OofqNVZEfG8s/gARH0LNBV3KOU5CmFKCvSUZS8WCUcKnUdI/GQ19lnJFDWVXV85NgbkQpURIt0EcvWEdc0okUJ5lVRSoqJyPjfT17zxSZonieH4cUzaVwS6y2lkjOwTqRUhDqZcnMilTcdF+Xe33yvjW3b5vsddDz44/hvChaSEnojxd4JFYKkCWZ4Za34gFj687EGGKEWYoq1JRjDafEUuP25P0MvpTCDcpf/YTO/fsSy+BLON59KOdLjjum7+V0ntPU6ubwJRXurvG7aw24UOfg4mwHeHfX+KRuTgMznafc5TwCm2WjCVfxP6/qPe/1puhGo203e+Im6krTpfWOWdww29xn9Z7nZusm1mftPuQmxVp9mzWPaDY3162ot+9hzG7WaN7oYTmhcbbab3+wNbgFT101+85t0xzTEFPv5q93te42tV7pXdbd1r+KmNMr8aDAF+YsqFgig7JlYdAKIREF/6MRHcXEZGfWe9J9rzvc6zD7Xer8wCULoSPoVkmHiAcEgYKFS0c8aVqYTiLZh21+Odyd7nfbfic9O/6EkpSN2RImDKg60mZiHXAqRZaY98ap6ZvPJsHacXg8Ox55h05KGRQbQXFDkONgBlpFPOiEOgaXPH34ADXxxK27SbOz5EwxpfigSAwm4ZFJgnhtwd7DOQRtioGsh3CmNemWrHeaTP9yil7YeRi6mnTP/ulPRXbvVgIolkbZbgZbaq6aB1ZifC/jXhW1FFZ3S9xlNCXAQGWuW6KbIZjtPnT3FsVPczxOO0zzakCshtd6QOR1Auu3w7PYDc/ybvCz9dBcj7SQULuZsTqaN8YmaQbq9u0MX86aObLdZJmsB3Hchd8O/7p+oWpVAbHTFUzbmGpAZrTbdr6LINFQhYN9c1JM84v770/vc0VFThKgg1HtYPhxjAQBvSQUxThPTmX1oKjO9zrIsJDvXVbFzw48WOAhZm1IokkT6XUmLoqIMKJjMSLQ/KCI4Pf62r2uda/zdfvr2fFHOs24ZAU9ExJ6cqBPttbEaVUopQb+Tt5P8iD4GobAs+NPsFLKgj7YBb2ossW+Bb0suyJyidKDjveIFa1hs25K0N4z5FCgWgmOKm9Ey9rgiQSClKCtyp6p4CfPY9G7NeJJC1W9Ja0dEjUZZ8epFCOjUeDOXO6BU96AGkxBloQtnkabRJ6+h9kthdt5UnO9pMpdqSUGWmpZ5cCOgnF3Kfh+XofNzTRsv6at+mynFCZ7RYZeyM2SGzs8zdtrxWBBfEW/rXUrGF1avp8H9o88mFfTyTRc3ntgP7Mpabr7jZpMNBr2a/fzmnICaNzPM0uA0P3K/cymJHRru58pwAi2e7X7eYOVm9f02tNQ3SeweaJcukNZTVt6otaW62fWJSVdarZfci+z4Xf3azXy0P8wjYTtZTYle8Q0mb0v09Tu5zXlutxp83ofpq3czxyq3bSx35wms0dhndfvBU25rnwP5jUv7n3plhG9zjH0EZon7mXWtfcwZPA9dfWe6A3mNU/sSM9QVlXzAbhcKeuVSSGaCbY6nJlodH5cXW9Xzl0zMdeEd7tqYrOxu/Pl6uByuwMyO9ExbXOsUXuaEG3iYfL2TCdRB1XEu7Q5FsjencGlqueJJtlaB/UsIK3L8ibmG6/fRpuHtSZFdXJRnazOGKqTrjq+qLKO9qNu1rE4WRXUsCpQxwxskqyZzZR4UaXULnZlHZyzCspZxTPCyHR1UE5WR6AUVcyzKgQl1qmC1KGdA3Iv63iSGM6uisWH6TqBzsyq/iKqfo9tIoFWKVu/sPqR9cwovq72kICfKjwlBrmsPm/9yZqZUI7hFushuklg+MXG3UHW35A2x1DR5nvuDu6sYtnVH7YZ56tQp/SqDdpXpVQdypLuIllWMTLbFDrvySYpK25ixExepZATphbROq5fzTSpd1Eha/7Liv+s5q6sJ4eB2QjMDfNrQQcYkbxNsSbEaXWxS+o62qndxT21+FOHO8Xmtak69iltLmrzlLYJHLtPb5hqwaXNlqPLJceQZmCTRluILNHLKGPUdLLxNaShDOkLQ/rOgF50dsohLUUVLwuJOlLcwAi8MioTYaTKXIni+OSNQO+lM90fUs6OV4FrB7YXnhwjcPuBD8RT4JXDU4iSY8JND0IyOP4OjN2DGsv9cfrseFWKNg6MfGJZxI2LThEXuSQpB+0ccMsE+ZC59ynK5qBCfF9xPj9eGZOTR/eYkClu6Ic+yACvhFGa8aJUecDmxUGVcki5GtTshpTPs+OX4SJIYxQJMuGaBTqzaI4z8zS5ZLR3eTK/hrX/Qc16SPsfshPOj1+JK4ZhbpKlGJrLa+JKQH977QXAfuHTj98bVMnv6dqDGvl9xf3sOJVSCcplR6x0VXg8SMXoSE7ZeiWsS3R6TxwyDAfMuEHD8L4BeXa8ij4p53wkISXc6CkibtuQpADqm5BjEGzy+tjwjMnQ3MHgjMnQ3MrZ8Yt6U1wCxSEziodgsoDLJZLwzAyPzEqpp69GD07zDE7KDE3zDE0InR2/SogA6laRQoMiElCKhAxMo4BZwmddhH3ktOXwDNGBaaOhWaez45eRWcXIHNHBGOBXBi0iSAD9xCkVITIYBd5rmvf9ZnjOjl9WyZi1lBirBfDL4mbiwADOvADwB3BjbnoIhKF502mznPdnV8+OU15wqjnnhAYK9rT3oHnFiFHNbDE0s5zjZF1+aDp/aH5yaOZ+YNr/7HiVTYR+qDS6wQJqgaJKQokRRsUSOStcFv6YRXGQDKE6rh3713eLdg177mU0KyKdZ3K65Lpzum2nRHVd3784B3flrCqZKuKTAGkNGAqGRkhpQbl1LNPp4+zwFxjh3/51XeP8JNRqAVYlxnpxEXqz4cSGoqBDaQyuqi2dvjV5f+3z0J6/QRmrr8+PR0HYAPAGwwKrwl1a4sCyJAl0NWq5pdI/aPm9S/uRLYxDzt0/4nZT3vRNTNW/8kqdiJ/w2Dd+mzerumF3mjDInwE5I1IpnHPMHOc7NIhhZJ7bJEAhBl7e+DfI3X+/SbmsbnJnr9Af8+3r3/jbVfxj83i4FdfX6w0QoI0xHDSSZ7fQlGcveHfEF0FTA690oCKh5EvimI4kBQEmMOji2tC7935RcbTzhs7L//R6ffPq0Mv9m7DKN9tuVn6zur0Fvj17QaFxb3N8d+37DX69ugE6b4FXCoqs3/q42n5ffZPtxt/cvvWb6pENw79dbXLZVG1tcu5THKTzOgpJREadkIVMrAXzn4niGE8wnHY53af46999t30Uy2l3Kp4rnQU6G2joQ7L4AKa1Qk0i8QK9rHg/yvKv/+1mO5XtjIE89dneZI2zvSnwI7GddYcgYxllQLWUeF60YQXYrikJkovgnOC22DuqP79eAxVTCAUdlSkqO3TuckbI3N0/gXCZLDEeiCfJ6QJIWSKx3GkCUAa3bPKSqT0q78vU2VLalWIOHw1sd09sFV/ABzwFgAkiWHQexlIANL9P6WThhR6iQTfpCu8ua0x4dwVOILw+BO0zYIbROgFmUANkG0a0wVhUVPFYBVlqiP2Lv56IjQLEgbLuJ73LGqNzV+AE4mtjKoyFRBhGk5fKwhhPEaQMV9wU6LUi9+mcLL1nQWtXgJNJ8CFZJga6LNAaEIZBnn3UnBkRohN0j9bJ8qukcpT15HeXNUbrrsAJ5FeIqIpikpSE1ioMPMTismZhhUXjpaAq3dH61XpdPsur69XNq2nkUiq1kr2xZpc1Ru6uwAnEmMccJMY+yYwHIilgk/fOE8c1DMqFFmbiILnTpfkcSO7BcXQMVHI84A3Xf6rjpWLMJFvplKDCu2o+YoDkyUItQEFVuqfI7bJGO3Bb4ARCrYV21FJKBGjK+JXBaMvCgI2plQpGqZxZpwOvblA1n0KpNoJikMQ7Qnc5I3Tu7o+RiRGn+oTWdsMUaS5CwLADGMVUgE9rAJSDxZXRwrx2PpUk4z6dkwX5DGjtirHkSRVeAuEhgZZI0U0F9GICdgnOezvQFek9WqerFRoQn/bVijZrVK1oC/xY5HZFONlkKUbY0/hVpQHNOGgB2qOOifkUCvcdpfi3U3ViaLBm0Pf66NRkjaNTU+AEgCyj58VFRozPmUihMNRSBJOHCqGtMTp61afzIUj89LT2kNh5C/3TEGOTJFLD4GMlYBMoMtwG+MZ1MIkurQ+AYAsjiOtDcJM1DsFNgRNAcEwRTxmKpICwwneFAceDeUsKdyFZIbzofteXq201QzJVr5AOuOW63XWXM0Ls7v4JZFgLx9FJh0SBRwBYrfFIDox/7JlzBvTkPEzrZFF+enq7cgwWHOAPUAm6f8EjD/DYRUNJsVyIzBlcjNA7HY8FtU7pHh63WaN43BY4gTgbZb02FCcl0JmtFLBpOZh5ioJ14GMWPIQ7kn/zbnWN9D5EpGEYU8yYDsW7nBGCd/dPYe4VUBR1AA3Ko5OVsg6sH8+JY9FCz81SyXF6J4v109PcFWvDojYycxiKwCKAsV3imUSBuBKFKyogoo3TPFm0JafGmZ6qscsaE+1dgROItqNKgKqIe9ozeg4A2aA6YizWnJjMLoDZ0OnN8MYHQbWi1FHTVSN3OSPU7u6fQK6ZDZRJ6L3UU487TbEfJw66VdEKvnZ0lg4TO1mon57grlDH4LmxuLjKTUA/GkF8ygaoFgmoZyJUHstDBE8HayqF6VkKd1mjYN0WOIFEc0lNKmjxpgAfWTlKLOgjJMksotLACNqZ0wAygaD15k9+s11tV+ubl+82uBI0UceUlDvV07t2WaM6ZlvgFNPM3HoVgfYA8A1jc1AA3GAcJpudMUVHwSfQ/gAd+wzo7+nYSskYXXWSHB4+EaGDu2IJo8wWL7gx1EygfzqaU2a4YD00b7NG0bwtcIr5aJvQGg5EB45mMgVd1KO2UmTWmkZJVWe25zfrdzfJb77/+iEyLxzTtkNwcz1CbXP3FDoKaCiGCUEyCBOYU0kDjHtNssgaqA2J8jBA6q/Tyge/XcVpH1gbYUx/cnqXNb5a1hQ4xQgmoywctG2bcbUsSkN8MZbEBBYIDG7UCDH0gd9OhrRzWB/szdl6pjhPllCB0/E5e4BzRgljPPrsdCnGDFD85bttAhP6diKOGYHRJno41maN4lhb4BTCDRpnjjBuK1MdOYRHiApRwMaKIoGWinO6B4iGDn0ziXAMC2Z73XmXM0L27v4JqI4cvqwEi8MkGvAIjgAqeGLEw3dOJlhhFT1ENU77TZvcFFS7roi3GWNTm83tU8weFA3IDDqKtzrj/jsYu1MxJJXMjDIBJPwgzfClJ5MtpYXxrzeP0OaMzSO0908x9weWFXxUTwqAGpFWRWJpobj9kLosoyjZDVD+rxtMTV5a1OLe0mKddWBpsS5wApKTs5FqwOwiLQh4glRgmuGkthXBW6fk0MeuSS4RxujtevMmb1+vJzKAUmVhtOjPgTZZ43OgTYFTMMCohJGQiHIY6ge0cWJ1AXWNxQJDiHPe+FEG3F778HaT327WERq13vhv8sa/mjysaaqM7g9rTdb4sNYUOAEnCg05GBFIsEbjsBaJA92dgKUvmEvRRasncyKuN5PZoKzgvM+GJmucDU2BUxgswlgjEvZ6wEApKAd9RkkSDC+gz8RI+dBAN8yGt0At9I48cTEE6DKiP2m+yzrAi7rAKYYCnQNHNuDZsTD8MU+8QbcSmkAiZECLeZQXwd/mN/DGgQ7y7XS3E2HBeu7BxS5rFC/bAqfgCEMPMK1J4ngShzCCePTHUOgyVkBugrKP4UiZ7EUG5DnK+B5LmqxxljQFTqEjlRKSRMgMDISkwPgZeAArIFInwbxNxo8PIUMsefcWus1DRMTB8Gz2+FFnHeBHXeAE/FA2WymcITkx1CKoJS6A/iQC4KvwUnnxsE5zvf72QfyQTBin9lSMOuuAilEXOAU/YvQaVQyeMYqDiDhrXwSxQWWjgnC5pCF9cvs6b/BpcZ1LWUUkZZrtJJmU/SmgXc6YUtneP4WCIaJhvnIRwPhdFhUMIzTYx15yIYMNfkip7JB/k6qpoNs365QnygCloC9Z2deymqxxLaspcAImUC7BgvIMeoIwREZdcGcu2FHUaegrXumus8RnQOx28y4i1V9/9u52u36z+t+cFtCS/3mXF7Fze/EPx5ilIL7oiQ5/kocxijlGIgAeVwpGa8t/WGzXWC1BJX8T82JdFnTJujtJjqkoUqt9FUUecifaFRjl5pK+xxREcc5l0NOpVTi1qDCEv2SkBKDXKOeBwyP8/HegXKnFy9//62eQEmzx23C9+CoX8tvFn1c324V+8+Y5/Fv8ejVtPOK0y5jqasxQp6diR2QBYJUpkj06MgTQX32wmThPI/NZqKT5CDsqd9/Fbg6uJ1wT8bbv5HDIv+EQwrwP/SUli95IJBqJZ/CVKrSJIA6GXlBYqUshj9D/m2bAWaDb6GOoNxZX9nssaLNG+dAWOAkznFU52MKI9biDLOHhjax4wopVwskUvR3rG3/+/u0q+utFOw2/mO7cj9sohNgHiSbrwOaRusBppCJTmVTGfQwlg2kbHRgxohDOoizU5wAq6yNBF2MrWIunh0KnxoNDIgnBKmIo0+gD6IHNQ6DLlxMhlynunO4Zx7usMW7uCpyEm7JoE6VxaBSjWAlFLI1gCAB3NXdFeT+GMffEarJ7HHoX2J7byS5nTJVp75+ECbb4bFlOxDKFs8ASgCY6AUxwJSaVUuL2kSIVvIIeCpYVNRwd76ADg4mJu7otqM3KS1vU8DgOBvDEdWEpBO+vDe6yRteF2wIn4Se6ExbFHCkcfaGtN8QVpwjT3iUaVPHqmFB9CQbkaxj3KqFafEX4kk7ihtPOqd7YtcsZ4cXu/mlUGgMKcfKaaMFAtKQHIQuyEOGjMDA4C6XdI0WLFxMUhlUwIRt0ljIkaAwTk4ILHqxXnuh7oZU2TMOItrdCVWcdWKGqC5yEm5pGG7Cj8sBxG1B1uAjo3zmriNtmKPPxODc/z9AuaALmv6i48yu65Jwutt+sbiFpnV1sb9fXmBTTOiFGs2DO9VTGJmdUbWzun2aQZEVTmj2hePCVTDISp0CTVjaJwnMxPI5ZJnewfgst3QK//pi3cN10RLaUYmJP1Fxb0euJTc5oT2zun4QlFDfaR8BflXEBKOHkJ9hpJDMnFNdCMjamQD1AdqpkLTtcTOxn5wfgwgcwLlzAMDdgeYChT7xOgC/FOrA8o6bFjPAKDTFxZ4ipyhD7w/p3i08yJ0v26Z05xsQD7DGmBFjxrKeR77JGd3S1BU6jNURQDgxAkEfoBR0KLDMZOfESQzFGK2I+rpG3fex33zVK1B/97W1ttUBf40s1jTtSMJwv7/nHtFmj/jFtgZNwJ/gsPahOeM4t6OoqKZAemYmJTrJsowpZjHCnov49bFdBFRW8O27tcsa8Z9r7p9EBUOOROZIkDAa3gAHLa2qIoJkBj2x2ecxiOSYotZ3/VXVW5TRY1soxZ7ueVLucsUX59v5JmONzdKUESlwuDj3JAkG7nqQSo7aaGzpq5LeGx+fvNjcrbNyriV4oUnGpRU+x2WWN9pa2wEm4kFIQVsLgRA16ZIBKCmpi8MRqj/uchZFxrLfcM8N2XnaTmGEdKCKya4vtcsY2tbf3T9NZKCCDA62WW4WLcwnMe0BUEjNljsHAxOShOUBp26FH0s4c4GfXm92YM4kt3YFmfIQ51dCSMsvGAGTSKAIu3ys80VmQAro13EtR6umIUatvrSP9AreeokEFHGKTWCFhkBA9M2CXM2att/dPgxg2y0BRfbPomudh3PUcAwIwGFQ8BbMqjiHGQxQ5J1tFTkxV5CigRN8n/S5rdH2iLXAaXlFhjSuZCIHhMApGoMpFk+iCYsImp5SaiisP2pGupbS8r67tskZtx7bAaWxHzZgvxhMXMdRlcYCuAcQG1JSMzo2AO9PVtc/85m3GhF7dLF5e+/CQOVWmrNxT1nZZ47OATYHTmIuFCqdxgqpQ+IMzzJUqW0BAoLfRVPyYvn9slkInmQ0GUjIFzFGZCh7jKBIpJrkoZQKoN++9kHVuc9QpOJMDAFNiGExKWI7nmWMw6OhUEtlFMzacn25CkVs5UT2SXLC+d8oua1Q9aguchJ8ZyHS4h9fhciB0BOzFoCPoyBxIqHBCTJigPQb5UrKd7d49RvMDhwR6r0mOQmnCs7x18rhCIimuZVBCKc1cZwVDo5+K95Oj6DjpLO9N5+9yxmZ62vunUSGVDD6hPzfFgNneG7S3CjEmyKRTBu11TFp264a1YfXwhUNtFDd63++vzjqwqF4XOE3f8UzbCLBLRQTrs8hIAguCZB8SJGx0ZkwkjmGR8qE4C8q5gfEBuK0BhhyXGAVEcBa8zn4Mi6apnrjDo+9FucsZD45hDvtQvlf3shh1CxXxEjVO+YBkeY8TiSqpJHHqO0zuXg+Ih6J4b6NIcz1qr/ODW0Tea7kQVCguiidJVgMbjD4eDz0AM0VQFTVzscOAP7/OGDvvv9Y3+euXbwn+ssWX6PaUFy+/vyUCutmGsMXL+Jr8evH7P13HN1tyu363fb34ry+mTnxxt+c2uMsan/hqCpymv2WrnQLgAcBFrw3cUpIMJ5oFw3DFxzhxkEUCbLXrvy9ebtfoQlkxSg4xKvvb7VQ+GSuEUd3J+F3O2Bbw9v5pvBlk5h53YyiB3nO0CvvlHIlF6ihEVrK7J2GASXzxOTTqOJMeJk2gFXIq9zXJOuuAJlkXOAmjVKB4vA+ejplxqw56GFoLimWWIiqA3MQ7xm61/QyQJtcb0Rafv7upofov8ObX63e3eUEWb3J6Hq7/PpkjJwge+l6iw7XyNBYigsZYuBSP83GJwDCHJx5Jn6icwJEGhsgi38Tr9e1+JNfL4YeWoNaJFEhKoPdB94ExSbFIAGcsK4J6x/b32h+TEIxse6nsiNqVIk0huUSMLusKiEcqxNniEijBTPqun3IbXgJw5Puvd3Nk1eVimo5yoo2cD+fBf0P18Lcctxjreee17aRWNJDMWEBuaBCOrAnYaklAT/J13MyGypcxVx/+jd9uVt/hEShXtPn/YAreGF8Dy6CB3VDKDiQPDH0LNilwXzpcIrORgskGmgnoojJ1taSmI361evW6cdf7Kn+TN/d6JFy9amNav3jGeAoR45QJxQzioiMObB9SNJMGdLKUVXh2F+r52eQQog+gHTrL5rdNbO3X/iZhfOqpDZtC/G29W/zPNQ8ac6yrgX/RDI8jltst9vCmzP0xE7l7N65+0cLDY0fX2xZYvugAzUF4Cd2+90W/P3Z6ILwCJbx1If+sdRzHd+y2048V+rLqEF+MMPtoxd+3X9UU6XMIjDgqQamTuErFcoZu5ZVyQQpd7QaJ69VNhMfdbP+y2r7+sn72l02nrKPS3b67+d13b9fwbfG5X6zrHcTfgjHQy272mnZEoEWehpim/aFp+N7dgYgDXcHZKz1tHuBOWPaq/zjq2U6A9p7+kBGrJ1L7LDkM9b2zOlUolnNKItgJaOWg/5oNhFowb5PmifLu5oautv75Zn3zEBgTLjulMAYuOqWIFDHeryAUlBxqKBjRyj8NjE1r2HQWzGD244LZCMunQxqPoAxhcDXpPZjyQaIji60cWZyMNmQf2QxpPxVIiyw6ygHDkgiVHyojQSdJsigecoQOrrMNukdpM2z+IZftwJzwHp5JgE4wwEjM0mJAO0Y8945k6wwVGgxlWZ4Gz6Y1bCL9U8HsxBOoP3lM7ASXmQSKk9Hv5t319RFsa62rHri9bK6qIW0P4f7SXu6Pd4+DuYHII1Px7tTz9h8PbDJTrFYKT3kUGONOGOIzyyRqy2VgtBjR8Z8YH5NHAXPiKPzhAXNiw45S/mPrff3Z8UMY9/B59AdA3N0k6rlofl1le6IKOFHJn1XA95eox0DZiIw9Hs0S7hsW2RKaMUopxzMMRNYkm6yoUFSbrlt/j9ZJ2h/PQeikBMEA0YCWRtS+KUWkzKXVXldLX08AZtMadozwM1X7foKQOCt+F6/4XTpYBtD2VKaWFIl7Da0tBLhHiVaOa210TLoDlv39quwQSkZQHY3KoERSq3FNBj6CwAMgvY3eucR0FZyug5ITTyl5X5Sc2LBRivvw2OwGfwQ8vt82/BkdLxMdG3l5QnR8z/APHxM44qmABTey5WIAHBGbqsNEvYrMREtBzfRjUMEPgWO1EcoB6ERQSInUGqNNKwWaGrPBm0KF5E8CjhMbNkrxDI4zOM7g+FGAoxDUOQdGbYwi1kHFXU6AHKBIsqISc0yOQYU5BI4l6lyS04Q7CQpadGC/a4xe6oxipggqLXsScJzYsFGKZ3CcwXEGx48CHJVCz+XkcKc7Bg7FhVjcRxG4r3wiwdKMY1ChDoEj1dRyRF3qTBUtEL5Bhk+Cbo5O8aCCFE8CjhMbNkrxDI4zOM7g+FGAo5UmCPhHlMugOcZgiJVCgFoVky0sAlakMaiQh8DRmGiYUgU9GimRHv4Eqj2AsIjAfikSe5o5x4kNG6V4BscZHGdw/DjAMWnukk8kWaFRj0pgVktPmChROWWd6+2s6EGFPgSOItOMp3cSLa0gMnAHD9aAfJkrw1lOsYrR+eHBcWLDRimewXEGxxkcPwpwRNxRxTMiFJ7SqXTGYJ2UGO6j9hRjPakxqBCHwJGz4BTjgVgbLMbvAZU0pUJAFXWFR1eUeBrNcWLDRimewXEGxxkcPwpwTBihl+KiROK4C1oz0KNEJqBeWaW5ZkwP7MnNfjN9I5+kuLuXc5JMwNNzQS/1Vdx75zlj8HGiehrXx4kNm0D7vIPvNNuRW15Pxr1nVpnichFEUBBlqXIggWJcJ+nxlKBSYKR9Nvtt/1T2oKjEFGAUSQr3X0RaCHRoQ1SU1MIIkDzvrJj0kBpjvR5CLdDSEBk5yaEKpcoVcZxb3NaeXIpgU6vYRy0hoiqKSVISVJNZC2IjSGJhhUXjpaAq/QioNbFhB2juoxVm3sUvfYSW977nsc163mXqeX3BeUJ1770PBPyYFD5jJbNGVUHlqxNcE/GmOqtTR144Dd511lFe/v37a4wJ8vVGxoOe21p56bhJJJeAsXKLJyFnPJ/OcQZwrGNMT2ILT2zYCL19qGzvHsXJB0fQnjHwMjFwF6nyw8DfwyOzf0zQlrThUgOiFGMAUXLEEyFLJCLkmGF8gH9luKsfXCAOwmimJAYKK2AiG6+Jd7jeoEHdwsARPvkngbaJDRuhd4a2GdpmaLsQaIshlOIoJdlVR78oTWyWgHRKeguwUkzXb/quq7PDWhv1FNRj0IY0zQVP6QblyIA5HU3OhSYvJI9PAm0TGzZC7wxtM7TN0HYh0KajKDFQTtChAz05LLHMGFKsMczjUaCFD3V1FQ/vljMJzDwnSVAJHiuDIk55RgwFEzcrIZJ6ot1y0xo2Qu8MbTO0zdB2IdDmrYJeLRyJQikiHcVtX7IQ0G4s44mDkTbY1eVhaGMy5KLxDCoeA0bcjfBY3H6rpXZSAYTtL6h+IGib2LARemdom6FthrYLgTZqhKVOJrBF8WiFki1xyToimYiR4r6uPNjV9RFoY4CNnEaiPXN4OLsn1me4NBnPIS5e0vw00DatYSP0ztA2Q9sMbRcCbSl5bnl0hPMiicwCDDQ8YFG7pKG7+yLTILTxeNBbWCcfNUuWGMkYwUMh8eDiSIQOPKpsg4nlSaBtYsNG6J2hbYa2GdouBNq4kIo7bgloM2Cg2SiJRy2GZxp0sKDTGTrU1cXhZQTAxGjx/GgfIti5MUlQBkPBg31Uhhf6YOyTQNvEho3QO0PbDG0ztF0ItFFltBaZE1DPKJE6BGKNMYQHy7LLxTI/skJ60PkjekONC4pwZnAh0mYCV4WYmKU0Phuqn2aFdGLDRuidoW2GthnaLgTaXHDWOZaJQStNZieITdEQgVNw0P0NdYNamzqstQVmnVIskSw5IIjBiNcmCTB7Yy5BCFr406yQTmzYCL0ztM3QNkPbhUCbzzkErRnhFv3aknEkRA2wIphyTImY/KCBZg8vI1AbmUlekZKcI7LIQoIvmigqTTFg+hUXngTaJjZshN4Z2mZom6HtQqCN0aQMBa1NlII7kT0jFgwzQmPUKYRYohrU2vQRl11KU0o8EpE9IKYxmrgMxl+WyUprNIv+iVx2pzVshN4Z2mZom6HtQqBNUWWUNgW0NlfQ5UOCQeokKVwDqERDA1NDXd0chjYVoJ52lhSm8SBaUAYt9wn/RCrQw2L/jLQPBG0TGzZC7wxtM7TN0HYh0Ga1i5xyjCuMZ7vmIHBPJSU2MCqtSoFmNtTVxWGDVDItMi2WCHQskUVE4ikDADXJ6iykU1I9CbRNbNgIvTO0zdA2Q9uFQJt0TMsoC0m4x0oGmoiLMpECiJdF5mpkWp0d9mujOoJtFxnxlqOPhZXEl+QIL8akBBAmxNP4tU1s2Ai9M7TN0DZD24VAW+QsWgUWWbTo/OE1HpqTCjHU8ggaXbR+UIthh7U2V5RkXBgirPREco1nTkSKZ05o5Yx0RjzNMsLEho3QO0PbDG0ztF0KtHnOXRaUFOWgq5eIIS6TJ54Hz50KrMSR3QgH/dq4jiWIQkk2NhPJkiLWKUMyqExFWc9SeJqDHSY2bITeGdpmaJuh7UKgTVLJqMJQlBjpR+Ju0qALIyZ77SgvVKhB5w91GNqYVgwQMxGbGdh9loIFyAsnkVPmJMZR4k8TinJiw0bonaFthrYZ2i4E2opLMpkSiVEsQlc3lFjtDAFT1FNHbdDDuxHMYWhTyhcnggdlsBgis0dPOQN2rkocjD4XldFPAm0TGzZC7wxtM7TN0HYh0GYTSyUERRRPHAOIe9DfGHrnO64w7keOI5EwDkIbqH9WZBtJtgln68EC9AJghLJohNU6eP00c20TGzZC7wxtM7TN0HYh0CYCmKOVHwQXmUiqQWHjyoLqRrMuwauiBrU2fXiF1McgrJKSqKTxyIVoCc7Tg64UFGCKpABXTwJtExs2Qu8MbTO0zdB2IdAWKKPBGQa6C8CKLNGToIwllDMlc5Q5uEGtzR7W2qzy3njNiSsYp9soR5x3imgrVPAlSf5EWtvEho3QO0PbDG0ztF0ItBmdA/ciER81BjVCkAspE8G5r4w0PXbC0+HTnZPxWUtFQsgAVBb0osBMJJG5opwrPsunmWub2LARemdom6FthrYLgTavWUzFOyI0bheXCoP8BEZM0AgnxqVshro6P7zRylFtPS0YYCMnIh3G6Q5ZkFQUPLZYI6J5Emib2LARemdom6FthrYLgTZpUuHWUVKEgq4OCAL6W1CEUR7RUvOijKwYHnTZtU4Uy4IlCjVC6UEPDD4b4qXPTBeelXya3QgTGzZC7wxtM7TN0HYh0GYSjzwXPI/a4wntEY99UbIKjOGTNkXKwbknddggzcplQJBCCmhHoByxQrzSmQB+FB8YFYw+DbRNbNgIvTO0zdA2Q9uFQFtWhWoHEEJx2VDiHnmrjSOJSWZKoVTFke3iB6HNsKAlNZwYgBIiOT6WU0moDJYZfE15mmWEiQ0boXeGthnaZmi7EGjzOgYWaCY8SwwgngPxVlASnHI2QDvKsBbDDxukvkgvwdIDyEDHEi05CUIaYrTVIsigdHgarW1iw0bonaFthrYZ2i4E2rKJvJRsSHLWEJkAW7wtmjhlklDRWzUcitIeXkZgMQdrAxi2LoCdi+7AVsEf7qw0wHwVyxMd1jetYSP0ztA2Q9sMbRcCbUGwaDmLxCTcHo8bj5xQjHiplNI2OlUGDVJ72CC1LHjhwdDLiFaSgvHnFTy7OBVoYVEq/zRnI0xs2Ai9M7TN0DZD26VAG2XO0iiIMGCbSVEkgd4P/R0M1eABB1IYDKhtDkNbjEJSrR3hWiiw+6glPmlLrJTWaUqFSE9jkE5s2Ai9M7TN0DZD24VAW9SZMtxOGZ0ERKFWEcd8IMJnRqmUnA9DmziyGwEewrI3pAin0RNYEh/hjxXeBxNSLuppAohPbNgIvTO0zdA2Q9uFQJtKJiYRHeguAb3znSJWeUdysiEl6YRJnT2kn69u8o7WL0tZYTs365stNPL6+hDWqcBiNgbew9E12DGKaMKJLkEnuJX5vqObD0H7LCQxWiciGTXEUsMA+nAZkyoe25WI9zwsYVLDpjKgD35N5mHgW7/1//MuL7qFFv9QPhRnZSCmAA6DoslJcBwgOIOQgjKts1c/LLbrSqChkr+BlqzLAuSZDWAjX3Rbfggb+yXHBfoWgOb1g8GxwLNnZBxFxlpcPgwunkLsHgSd7yNpj8HOIdl7j7giInEPKAms8Qpj2nKw/LQmnHEqkizU5c5m9AYqvkJN6ChWmiJ9xn0TjqLXiowB1M2cSWZeKRek0J4+CVZObNgBmqfCIxRYRX+9+LcbpHG92dXfwzXWgPAhRGvLVBIm3g/LmieRRb6J101/fn8we1lzZSqW3WPs4qv8Td7UrZmGcs8YTyHyAjaMYtDReXHEFUpJ0Uwa733KKjw7goPwze7B4BdrAKX7CPjFugGq9wa/O15NxbwxWXoQWD1OiKbC1FGxeg8Fz9JsWWIkcVBtZKIeEB3PUmCFRW4VY91Y461oZb85ClNWmeLQb1hQjScG5kAClZEEdNQwupR6I+uHh6mJDRsneUapHxGlWr4+AqQkRSzinCQT8HQj6Ym3oJc45zljnMdYzUPMIHXpICWEDt4wTaDDghXq8FxlBfYoVS7j3kqmuodx9izuaSqVE55So3GrvRB4Jn0ioRRDSk6CZ61LDuxJsGpiw45SfqZ25zwnN1ue52d5XvqkHePFCCY0NBAP+JTME5uSIzkrGC+l4cbREdD4LXw+ctADuCQqTFaFuKAAkRzAcEhBEGajp0zmwtjTuMlNbNhBqvswidmPg0kpubMWV3s5Reufg3YZrCKGMi2E0V6mOCStfDmvXFwuSjby8oQo+X5y91GBZLDUuQhqm9OAjzKVQFw2imhvuApJxCjHNKsKLg56pSQu8MRRR3wG61K6EuHhAMjGJaWEZIXHpzmPZmLDDlI9g+QMkjNIfhQgCZpicAXUbJ5iJlJ7TryIlESVFOAj+r2YQ3BxcMNFAuDhRReiBJWg0gPaOassyZRnaYxRWtOnAclpDTtI9QySM0jOIPlRgGQR0UgjNRHcoI+M18QZVkig3BqeeLGpMzvZW9SeNjvpafAU4+Z5rxiRJWSwbCN8kEI951k4k55mJWViw45Sfqazk7NXzCVg5cc1N3nZXjERbG6ZwdROiWFwY5GJBaWN0JKSCJoBnqiDgNEMjAd0yui5K4I4xyloiCkQC2YtScXnorhUytgn0iknNewo5eepV85IeQlI+VFplZcNlMkDW2ymRHg8cdGVAsAhE+EuWweKFZPdc6NbX4o1sKrjRjGuUHIjSomSaMELkcE64hIoisVJZlWRisq96UlAJ0YZxajNAJAS1Vv4jpQEyUVwTnBbfpQoLtMadpjsPkR+fj2KkfecKtqyP3l4e6SvDjB6MtA9C1ZKMAk8KQXjKGbLSBDakQyjYIZv7HnSzz6od077eT+Ae077qo8IsoyK3HErAaPgKwM+ReIEmKBgFfLggzfJjBmD0/aIeEVzKRwPMENNjfNAnJSCUC9LZlak4p5mj8jEhh2lfDaDZ+VuNoM/AqiM2TiDTtdgY2YMqcyJ55wTnrgpzjtpfGdZ5UEb6bzhvChaSEleAgqDhm2lAF1KZrjlrbi38vyhQHJaww7QfKbw+NPw3p4x8eIx8WLdu3UoLCP+ySQLbjIG/SlZQaJkAkBIZartAWhY1DvGFwcXm0tWpTBnibPVYbjweBdCIgr+R6Pk2ojYx0UNxgq1FEzwgE7nNHD8aoYwp5UKRqmc2Y+AixMbNoX4PcN39V1Ou8307xlcAZP1Jng+GFxhBsHzBcEzi6ewL0ofB8bJyISmWpOYJU7oUbAWPQPIU05FPP8sp/v7getufmzNA5Q3oaNiJOkAjxZ4Fg9GdedJ08J0Esk+jUf2xIYdoPk8VztmsDtbsPuoljguFgw9Dcpk7wjzBWxBJhUofKBfRe6UDtRa5ScofAe3qYSSlI3ZElAhKRiZNhPQKyNJEexu741Tai/k6QfS9yY2bALts7o3I+Cs7p0nwkkeoggZEI6hT6CIiXimODFWcyfh0xU9oPpcH9P0nNbBw1OdoAyww3HiM4wtXkimY3DJ0ydat53WsGFyJ6/XHht6g1esWNCxqeEZQ8wyGFbwIJBgcxDKS1tGJluMMj9ZlPvXDWaeDcadfvl2R/CPpdK9r1x9HJCXGPdMUNx1XJ2b6DWiDGi/JrkStFM+63sY8IdcJqxpFFOKD4pEeBaAmBPEa+uJw6292hQDWU+zpjGtYeMkz0sas3o3L2n8BMFQiiqgPahBruDxayoQFyBlpbFKe8dcDOPIcHTKj1ORk0T1kqKvjXDoWwXoE4pinCenstqLV/OBpvwmNuwI3fO034yK87TfTw4UaaDKBjzTiGowRgWMIZ4GR1KWGZQ1WYK9P+13Bw71zMbhM9wC2N1ZG5Jo0kTCWERcFBFVMx2LEYHmp5n1m9iw46TPk34z/s2TfueJb7xoI3MqRHNezYIx4owzoPxElrOzKZoDFvCUVQ3pNOOSFTwKMuEpt4x4rjUBsCqUUgN/1ZPg28SGHSd9xrcZ32Z8O098YzSyAuYioaCxEckCxnfHI3hZoaZwza0ZiGlfbxoaX6idtk2oA2lCRAXmpCQlUQ41QJe0sQhSMGS18VJQlX4ESJvYsEFq+yiGmZ/l1TXwdRjF7m0fuiv90wSpx+8/e0SY6ImbCj/gRrS+QHyA7Wh3L/s4kMpKm10CrSepgIdNgs1lwcrCrWlZW5WtYh1zqx82eUps+2AD1Upw9GeLuJkBlDyhAIICPt0zFfxemIEPtCIxsWHHCD/TdYk5fNWFqGsf1SLFpcevcrhjVWkLJqL1gBmAT0GVQphyxlOWtZQdRacfmuSIcpdiBKVRKDz2CB8N38I6CjqUsMXTaJPIezj5gZS7iQ07QPMDVbxjAusYs1QyQWTM8Cd5TzxzjETKOFeKcmH5sMAyPUdkuVSgfJgieEK8fF/x+4g27wJSCiYkwKU0YAV7D0OLVpkwwIzIFU1G+T50NIR+fduehMsOLmKAmQLqq+V4qC5AoPGChGjBcinRyyhj1HRvEeMDLe5ObNhRyp/qBOAZEy8BE89tru+9zv+9bKiLRpbCFSeMSTBaOYwPwehAEo0ySyEcT0eh7hDS0VJU8bKQqCOFoafg8wFKhZEqcyWK4+ZJkG5iw44RPgPdDHQz0F0A0CVqRXIsk5i4g/6ePAFFp5BCU6BSmURNPNbfDx4IErh2JQKgBCUcBtJH1xcAFCeiTPBm4Vx4EqSb2LCjlM9QN0PdDHUXAHXOlCApnganNJivpVhQbRxoOmDuW+lp0UIc6fDmENKVoo1zmhHLYkH/NkVc5JKkHLRzACkmyCdBuokNO0b4DHQz0M1AdwFAV1hMOntBmAwB56gUCcJbUiSYsMLSCBbdkf5+UKUrxuTk8ciLkMFGZAlgi4HOKIzSjBelitRPA3TTGnaM8BnoZqCbge4CgM7EkFiMGEsKFRsmI3E2UCJSEpSXooI/1t+ZPIR0hosgjQH8lAn9mvEUC81xmyvokclo7/LTIN3Ehh2lfIa6GepmqLsAqEulSOqKISx5PGqNcWJlksQGnZXy0Pf1sXn5w0iXOKCWswTgC6A04lFuJTjcy+CFjrRw+zT7aic27BjhM9DNQDcD3QUAHUX/tMIyaHLox2ujRtfFQoz10nuauVDHZukObiRLqQTlsgP4dKg5cUjF6EhO2XolrEv0aVS6iQ07RvgMdDPQzUB3AUCXqRCqgPHKcmYYNwE0OqarPRuZapeYo8c0On0I6KJPyjkfSUh41IYTkVjhJSlOMxNyDIK5JwG6iQ07RvgMdDPQzUB3AUAXPHW2ME+iZopIBdhiqQyEsSiLK9F6fszRwh4COupNcUmApsSoBguRBYy8JAnPzPDIrJT6abyGJzbsGOEz0M1ANwPdBQCdsCZQyjhRHBWbwBKxmAI0sc6ZYgPPR/o7o4eQroSo4WGKFBoASWnhJGRAFeoFwFfWRdinOeN7YsOOUj5D3Qx1M9RdANQ5L41XURMTHHT4DB0eoC6QqBxjxmTpzDHVRh1cjpBZxcgc0cHgLuYMuBWkJSlxSkWILHH1JEg3sWHHCJ+Bbga6GeguAOiCzdQpPJVQ+ALGK8skgDlLrHFZCytVFseAzh0COqtkxDgDhLIIOqOtguuzSIIX0gFuKeaeZiPYxIYdI3wGuhnoZqC7AKDj0SQwUTkpOeOJDlqBCacNcUxwYaRQSdFjJtzBhVcvONW4ykEDxjfxHl4QoyS+2GJoZjnHp9keMbFhRymfoW6GuhnqLgDqhFZWwh9iwIolUthCvNQFVBsXTVTChrin0+0onXRqTzYRrESliZMSjGMRJAZCjgQXOzgrXBa+50v3gWLkTWzYMcLPNEbejIMXgYMfVYS8ywZKX6gG25cS0LbA+BUKgbJoQiNgB0tcyjgWH6/Ci2OH+ShnVclUEZ8Ex/h7oHlR3M6hBeXWsUyfaOV2YsOOEX6ep/nMOHkJOPlRHexz2TAZTCyM4xGIFBdDQLnCc34UccYoVyhjeTT08NGDb7PVgvEiSCougnFqOLGhKMKNLsk5DWgo+hD5gQ6+ndiwQ0Sf7fG3P8Foy/NZuO8Lhx/0LNxLj6wcuS4MY6mqiDq2FQ5GEU6J1sow4FShec8V5gGQGMBC96XaBQcoV4QlziVDUmaGWm6p9PppIHFaww4RfbaQ+JNTGmdAvChAvEQN8b9/+OGXP//ZN36z2OSblDd5c7W4jfkmXy2qpYHm6ut1JRi37WVOrzJc1Lnt1Z1E3RUPPv69vWpe9DZvbt/C9eqb/Bm0cuPhOZvt6/WrjX/7ehXbvG6x9c12s76+3SvY5LaP3azxLVeLFlShOOSvfLjOTZEEaPj5+johkZDOf169aZ/dlIjr6/XmN35ztUvhfQ+M7mT9Ptecaa//skrb180D3uC3+e3625v/vLpL/7V9P8jFf77c+g1UxvRfqzTcbL6A/z7CWJk33Wc16dfZp9t/f9tcrfDomFugNif4Ivm6Sn3dEj6Q9TV+h92LXuXtSxhGbl59vlm/+cM6+utWZn+1KK2kffL3/D00Mxf/7nr7H/76Xf508Y+f/2yxgBGuTiyAv5ANla47z1jC0/9tm99g/U9/WZdblcUnTdlfLRB+Pm0esACx277b3PTe01T6IQMG7Zf7plsAf35YRL+Nrz9pWzf+RCj+Q4cDv1mvry+P/rvH/AJPPfrFpz8KLwCf/fbymPHWQyeo2l4/8Edgxm3eHubBN8PE94i+vSO6rfDLoSbtvXgLPfIW3ljdq+H4N9+/WPyiOWJqgePBL67w5u3r9bcVhsPdX19fV3i+yrd3N6sB9/bFmJx/8ou7Qr+4WqAkfbqri7Pfx6pWZe7V7ByYcOwB3aL3W1CtQx5tQ13qXu3fTiD9t4OUv3ztcXg8Urcpda/2nwDLK23r2MvvCg5QvsllAyPgUdqbcr0nfPcfq/zti53EfgJiBmIFAlKPqb++eXWdbz+hVwv4j336yx+qSt9PqkTcXrX/nfou1621yVDo+MsE1BHdet1x/wGsqdTYhjcvc6wXmmlN9t71/+5dt6rDF9XH+EXdtaoRH3S53Hyg4VH0k190ykErfpFAh9m8Qpmp25L89y+vQVHatC8DjW7T5rD6Td/H6/x7yH5RE3GX+fJtzunFKGrDy3el4N1sSet3btZb0AU+a1SWAzzsF+wzsVWakCGAXV2FoqrQg8vvQANa3aA+Bqm3/hoArgY+fBIOAt/tDwANQN/kbxd//v1Xv/vdsnroJ1ypq0X759MWsheL6rPCK0Hnfb2EV31SJ/x3zas/rd5dV2gUT1Bet1Djk+8I3n/+CdyvUrsySAID3bopu8sPI/mv7uX//+6eRKmNJNlfqXHEjlogCV2AATMRYzM761j72WGP/QwOwtGIBnpGqLXqFkh4+fdXmXVlHd1qAbPHc8TuiKqsvDvryqrCT/k25XGeRVRqEJAP7xLWyBM+UZkUfFjW2Nc9msTT7Qz2+myDRT22yZLZRRQprqHu+c5ek23BLh9XhOrtmGCi0+0LBMPtnVIE2/1dgWCwu0MQnGnqw71BaeP+br+5xZt292jTWRL/cUDFM95uSQevse5yPP1OD0goxJusv9NBkdF60+xW0eTmbnL4ne3OdrB20OSNdwYltUNo2+93BjvB6m1bexog4jra7XPEPa6rIeGzzUue93olfIJSI6HB/l7PEq/b6W3vDsvawf85ZgBMnIk9jm3Y6dq66vUrdTXodcKUUFfD552wMoSuBuW6qjL3jM+OzrJb29hcjUOuRnS5nV1LBC5T2GJai5vseWe3b+t+r9PbLZObq2XYCVtm4Hwl3Bjd53uDPpqz398ZbNuuuNvpPy+zFW+z95wbJswHarjH3XFQruIet89gLyz9Nlqo29kZhOnvBN1kb5e34p+A7ak7z0s+ClRWfxhmcYBesBcWb4ji9ct4DznIvejwgyGdz6YvW+wMmkEvojuNi7R4PREDu0hGTTEtl5NwLvl5Nppfc7IwtfhlnMDPl8vX57LTbZ/Fs7YGb5jAnhfLMQzndV0HSw5UZ/SDGoB37A6waaY3MAuHmT9ioUsBoJpe/8DA3cKKAAHDFQKwLwUqsikHwTnM60kRITsdXtgkMGPYqfeAoJTOphDqBetqXhkzgOD1al7EYBaFTW5Rx510wjUhuHsh8WwK7ptlyAJN27IJb9uYLhp0FiYYBFFD/AkVrGBP6viFQLMpjeDzJ5CFmrZVmwCDkig1cjy+AES+8SA+UQt67hC0s+sMJT5T6g7APmepnleAfgxwHedoo7y2Yv5cP5ECPdRdavP7dI4jtRr0H5zD6wA2n56T4PER1+FgokOXDdCEsFJcK5jlCkcb2pCIViSLYl0U0EaiMMswPxzy4bwV58hIWYC09XyogwVv+ZgZeiCnNF4EIaW+gP+O7SP9Llep/fXojszRNrDutO6t2VqY9re3b9SID7cbpIgbrNftglD8Pwd+ZCDMn6f5dBwvOZLGJOMm8RkMQgQ95WU8HmfcP8QSOXGQfBpPqqx7Jhq2lbbbsGVHTAvtm4jFElvQ6ai9wQ6d5h6oSdXatP9Ilo+k//dk+TgWQJkPJ8//eATtIn2M6DChVvPGdSmj6z6ctFoDxVVI7Zmz5Dq7SUzskl4poojYIYxw2o5k5c5Eledrec6y86UEHM1nOS4YNOJ5kTlw9aNhLbL1I2M5OvrpghVuj2bZNEpupHKSm850ltxwEkdieTlqOo1gw8fAm60gToQ3Xhyo0mNSuvRwrKb52BGzWOdSg+TROM7zN2ledOJz3iK9nGQz7vCzeJLjEmbNEXb1AGeTRSAs7zuMAgze6tEOtFzIll9IS9q1i+5f9wZWJyLHMqYyKeCDzOZFRFcpQxoR30lYKfe4eAkIrSmNIhFYLuRd2G/ZtNEKaWhFO8jn9Ruihprq604nqfCPeJLCriD+Jq6FjdXucR79nmcT0hvpPVXYnrg3psnic3QxM79TKN5glZT4gn/pEbZIYbzfYmP+HyDBmZxcFlcHvPwFG8N/NjeZNRSBPVsJ/JVXn5JhsGIK95yAWgeFiEQbNepQUB1I+4GvAQIg/HbroQNT9RPVF5n6/KupYqccUFV4k13dwousI1zlfpNlf/xcqLDqzZA/84iUzQZRln9DgtdJEeMPzJ7gU9SX2aIzRhxfWqwG1EmLtWuAHTdL+P0Qn6fz3OEXVhxqIP3g4Qys9xdXHAH336u0xYrbJJnAFyjJkTSA31QVfNLqN2qfbg+UQ2EHqWb5tIlafy6hJYeDZAeyjF7X+AInZMkYyHoIZjhQXYT40aHAwh5KoAjlStj4g2JoL9jaEsAszcXuAXZ93MQFezdNJh+L+XmasROWwpbq5SyBFBCOyQW/SdgljrMZ71L5pMeA205hyTOSMoyCfLs+AsEgTq+h77E+MDmqEp0T7xmEI6vBf/6PWRHpxSzRkv8UIRz7FI6zs5CrZqWASwm4XAV4JwHvcKlTx9Bkcq75sr83CvIFBgQaUi7CjTL57aiC969h/vK82+ETGQIDVglAbAoBDxi39BewCzHrKMtm/EvmkSwnXByHuMjTSTWFJVI4qUXhBFYkgiQeLegdsnFcxQZh5NP0i/6gdRHI37OLTjQUhBdg4PCQ7XVVSHEwMRcPM1janNeeCiB60BTP+KhNJQUwyHLi306eq51DJjx736xpLPaZ58stVbn0K5e68s6vvNOVs336DelitMq+UHkMJvC9fos2bOqWXFWqXRFP+v531fLlMK3n0y+a2/mUSDifHtOKJak4oRVGMtmV7utg0xFKJ0hlB+mDLB2QEx/EEBIFlYREQSUhUVBJ6C7LrrWs8Idcr2ppj7P9BeILdRH40qlXwHdJHUF/n+VugJ/yloEstzsSQxYc64pPxzas+Hpsm4oPyDeniN6eCUWs9swmIrNnKhuJNo+NRJvERiLM0KOLhbJHws72TVrA6D4SrUmv1vI/9p4yXZwn++x9dpvMBh344/Xk3byQldnkE64p7ZNNeERKVjzVHjeWK8/B77Mz43HSKlbkYUPYquAa59DtIBKzE4ThC4N2kJyoWoekaBEki1U2aQzFIVioWIcswAeJ8gqbJBg8TBNr1iGKDYJUocYmCzkQM6+rdDtGu82yuo3s0x3xaBs99rBh5tjZBdiGinUUAPBB+XmFS/K4jOTxmiSPy0geuyRPykierEnypIzkiU1ShrUwWVW5DmnVJkheVoZYKFG2qlyfhRKlk0mpy0KJ8lXl+iyUGEFWOiFNdA0lQU1WrhXWZJtwYBOVIRZKDKEq12ehxBCyMsRCiSFU5foslBhCVqoJHfxzx4Z8BglpX3zUeGc4JUMgzin8x63iI0FoyYNKCwIJ/N+J1174QeQv0ehVGOms6sdJ08Mhtnvei0MK4lTLLF1Elkj2gM5aVlMUpT+0lA+oH5rpe2cw8D6exdd8BPH12fc8GV/cPzvVAK+y6+k4sccLZKgQ0jCOFJkesvmqkqrulehZjunUOE6O3coUzodTT6NHjsjas/VXusTyqMpOxBX0PKdr57DN0YmnfOJ4/uoqHZ9HumY0SzhHcmE9auDia0M6AEdibcQ0YAeEfWcXnMX9nW6X9frTgl1nkwxPAh2w6xhS5/a7Byy7SWYX4+x2/yo9P08mB+y+IWXks9i/waYL+zSFP+UGDGUW91nqMHue3ihW9T5OUvxccJ2ezQtY24Yk0gbWtefTRtOwIBI+X8YzsWFg5TYcsqGY79qbs4esv71jlVOmHdZG8eQmzuX+goIPcqe3MaqBxVZ+wz3HU9kG8xUazlEfpQTNufoheXdwZBPYtsE8YLF9A7vTktU1UMSX4BGAhm4/aVx6wQB3PCqyg629hq63zbK6pdxt6NqKexXacHqIH3oIq23uJXutag+avITNT0BDztCsaidsgP2RsCVu5xFbBhDgPozOEopCGUBWnkIZCpVCFMxJqtE+uA1WBlyyMWatnrs5cj4uZ+NQNCjVFPURVUu9+qwyVKD3IGYO51I2nlKkoz8InJD2LCsK7LJ86/R7lnJNG6khTF6pUCcV6iyeacq8qeATziVn50nk8kTxuxZ/YnqVn1Yw9ciwGdx0D2i20e/6OtRfRWN7Zy2RdKBz0p/cbngaq81pTMwp9wqTEiUyeCpVcp1aWFf60KBr+ZCfxNRbw4mgtSEOX7SQzLZrHSnihS8FZeiBXvdkDAYz1urRBkh1ltkaQv9vcvbrmw+yJpLD3Hg8vYrN+lqMxzLSmA+YoWuQpaNxAlQ59X3WXVzgPzmOZJQcCPUxvUv81McW87MLhVCm7VXMAd7G018m0DvBVjWwUAL0MUNjaYjyLle3Pc+u5deh1IRnuS0dfYQSPZiOcfeRA/ipnFsBgbytWLGlZxF451VHbLghCG3U2U/mlNus31q7ETb5E2CRmV6LbXf5aF5uzoISMcz4ymjiJhTkQ+Dxerh64CKD8VxYd2rehHd7NEsUrKZL9uanMqK38WzZ471bGw23WzXtreV2xfZIVkrtQQeE9mEqZcbpiZgEeiqT5Y5XnqWFqgluppd8RWHccBjtiHc1eJsERNQKyHhhQXYrYBM3MLiaWS1aIAuhVLIA5rBgQcCwXCHQoFjcgjAlh2B8l8i5P4/O53pyjx5XcXS0S3zhDTgdthjLQYfRz8/XZykXGUGi7uIM/7kOPVbxWiL8eQHJDjwsTAvO+AWfKvGiNP9bMuYCdn7XG9oxL4QOIbS1r2AW0PKtSWUyrL3hfdzLOE9Hqjb6LvpA0Qt1IeLcmwkcIvpV3kFkIVKFsv+1ADt8UskHxknemc7zqyiw5IQ3CjVbgRolHgK4OnMEiWyyLUfuJqM6WT5MJ90uaIXqZFlXJ8un0gnUtJViVitlaStlWaGUu4cqBdRClXJXVyl3T6cU4yqrdXJn6+SuRCf8O0QkGFfEeqAd+TBTeXAUed2TAKa6DSQyiuZWGqPMRbSSDeUwQYZMgRmpqFLKqroJB3Kk4gmLZzM+fcouVOpkkl+x2ysejFkSj67YNfwNkDxGc8lJ0opAo6XSaA81ByMY+/HQ/rV7qn8bZorkeiowX8dTYIDgFleFQRcthoeGlph1XU9NDqhFvcP791843yZv1jrUwLDtVzcVXZA71UnqB3qBVvLq3yrEcu5UCVfKBVcV72BydpbgpgGPyL/HeHBFQRZXccHVnEDXMl4SXC2u3XgCdyEhSMGnozOmPBxbjOTqOG/Ga1nO47fkiJtoAuYTRBo5QSvLQLc3aZ7yfo3dJnxwziZZwW757AL1epXdIk64lIfoNyDpAzUNazWuoivu+zIXsPgsaIPN0/NTnNEFjFjn3jGVuXvvGpheESU1P025Ebhb2t6Nlkp4MOBqnnCz5Bkod8QtgcFOGhGVCtzkRm94QRVn/uupXIUgFLWK6WVWD1W8amzCyC9QIgYGkSTRklFZTxhocEIMqhj+4NhErf6k7T9lCnW7d0pxCTFEqIafCiMV0jUtFOptFKIjc4AEZ/KRwkVAOsrbD8V1EQEImV7tFW2yBnvJCxueKghogOTaeqGUL03v55SUy+jpi9R5UQu/cZijMO6zU/5VFaICc1Ev7Tn3FEK+7nphUjXow/+kd8hG13aaPe8b7C4fzihYY8N7u73XPOKMtACvAiNdcm4K7Q1Ae74F2bFOydIrudOrMup+M4uVD6pU6hxvPQvsffb1qNm73cwT7f1VNrk0gyFhyom4yeWjbN1Qizt0XaersipjMS3wymH2Mh/HfoPkOs1zPq3xW1zxicwEs7i2dRkPT/uS36Nszj+cj7xE+5A4hkbPXDinM/TahCpxF77IZA4M+ssNTnG4lvnkPWqgivlkftJo8Uh6JJeO3qrr6tSVLwf1MY7GsLbuYXsFxQSddxJAGUPbyoqnW1twm2MGa5PZZfRMnkjjffYzHjVIDFHSy6LbOP+sw5Edn0ig74y515HhtCy1TnV4wU2vtznQEIxcrwzBdSZJArussIdt0IWO39XSyAcABYVoPnAu+m9Tj4n9vn7gxGBAVhzLvSG0VggM8CAxsGfE5qOqaqFvXImNFkr4DahB74M50Gr8VMvYcgQU1nJQSdbBS0s76pI4dD+1NSfLBLP5kZizRAb0kDWgsGEiDYhErpSEA+GZHhgK0XiXJm1llA4HhOYzjriAwZh0fzMAJRjNAFMNkKxxCIEUneuBAgc8YkSkMUgcRssYwKFz+vDrSzkHPSgFho0stZvaKwcrsZwev1rXFfwgtfzjj/RiTpJJE/JyCqkHXdYAnFrkMDQyr1ZbGBPhKsxXSTMqvvqJ4x+bS2u4VM2f23olZ16DgEm0s3J3wCkWjAsoi5I3aTyLdz2SM0jim8QJNLAECbgBbybWHv6t3g7XotX19+G/yt9DHft/hr9bPet/iqtbTNXxcu1zK+wgcuX0XIbcV0J6l8AAUOa1CETmRmOYIt7gVvsYxsZfDqzqY6f6+MA+ux4aGlqE+Af3Dqb18Qjm9/j1irkADi5B4BTWUMTK2aiY869xJMaXsLgS4wlwGAhksOOBzcVERPVwVBBHElAhFcSRRKsUYTqQbx/Z7beC42R5K9IGw/vGDigO6LLbFpLjEiTq6iLAsolYjANUnmYlEy6IF5DQJbf4kIXQrdvaU+zbdqvRBHb7/Hhs5n7aVXP+Uw3L9Mpexi7SMYBdpLO8EM3xNAc3dCwGcM6KDIKbBZlF87s8obzQo9p7xRGhfUjE0sVijJVHippuRwN8LlcWdLaoCHlkjGZAYfnVrGAoYPvKDJp30cWL2/zt103tehsVMOS+G5eIyABrlxDR1x0p5wxR0TktFWRIStDZODOLOk90t8djcJZd8JFOgFpbo1bIcbUbk1ga8g5YLroV59Xqp1rGenE2+8kwp+4A9QbmVvTHOxSf0Ruen+2bWoYcbB7ad0BXsEKeYPA58jzZaqke06BjD4sDfIhghSo0FovoPf2D3iBpNPA/Gbym8OSy/zeIrlbNbeFLuS1bay9jXq70M9WA6RYVwpQRCTvVfdhqE6ZeCam0mn5iJIxc4YMrVOogpK+THKzWPn1OpKYF3KduyjRPUa/yHhfnuk4knyNh8A5JTTGc13HKpKCYKwRwsK3Lv/jE/PhX/dGq93iqP9xVcYNiWvvjtZ5Uqcm79zJQKf/4TssK1/GwrSuDeCSKwmH2Dfs9vonz0SydFizq4rpRA/5frObWEtS6Z4z9cGhdNOgK+1kC77MXeA9aen74LHjL3bOfSnVBr7PDcLIFqH7yo4oh+/dkWUlR3W1Xg6q8xK4m4SM8ql1BGSZvNagCnpokxd3tFSThJrsaJPG6m3ok0fSVNPEOuxpEhRMZquVfhGrxaZLiq0MlX0PZXZ2ruWhWdCz3/jifngDjevHHr8F78XDXMJk5l5ySRUXnlr7KWb669QsMnBfx9VSvIP9jzgt+xmoO+Fd4OSGS0BUZjtbSQiirzwJYOVfVE1/xI5JPUJXNUOn8tKRpyazUUwzccr8wKxDYD8eTwqTw9bgt8Mb94fP+3vaeuLIXa/oML23pPx8O93Z2BzumZgBtep1hvzfsDXaH5sqYeIizsM5we9Db7nf7u6ZmW7Tp7vSG3e1hf0/XTJngYNDf3d7rqQUAzutHWJ7E3JT0cgLpEgvVBAvUArd4aoHepyur2/q2GfKOQnyWRwua6vjjR0jcvZ6PY7bb6XX6O4oITlo73a2I/x//Eqcb5KmFpajjM8oI/sXbGzBxjIfNDby0Lx40RUFf/rfH/7uB9JPFNGovNhZmRxMn88DyxvKAPJhjf73s0HpURPExKhbM3LzcwXcqJjATjBr9c3J3oYKQuyW8mTxP8vo6voQIG9tHr8KHCCmmD9mtSTjB++/09Xfitjv79TCWbm7aV/Cmi2QszuOJK9NTfH/FPpjRhmQB/WGRV0dUMCDcfE03hqcMfAlRd+Amh/72dhhws3eqAS8rAfsG8KwScACAqvp+lVYw5uIet74hkCjIg/qanhI7I0n2F+e43MaweWqIg4mn88K3L/yBqtYZxDWWGfBYUPn9ws6FyP5dw3VIwJmdmiTihUvCumVfPy6jPhUrPutaEy9UlXmnhu44ktK/sP5QrlKaHlZ3TeRuTU2khcnhbIvZ9PH9Gjtk43Mr89TskqrrIcWTfnb5XO1lmKPt9AruJ9g4tRfgfzCMNM1XjDb5BqNHkn3G9L2JCiKUVyZAvt2QFwhclCK7i0DqjW8cB6gfqhHsQ7mEv3ZPDxwbW0PoQ3Obt7wSU0BbaudGgZQQ8XeEOmLinBU+eXTgNsEUI0WvxRqUYqPlCNlEwpGeHfBvIJu8uoonl0kkjKxqVhOyn2X63vh1Fi/zUcyR8unVpf6jBUlC5oke68EeXndk3rehj93wmg/qKRTzKsq94l8cl5fEiQza4tQ9pUGqHpW6scehdm8YuRXO+3irVaWfqGpgLDReML8+4npq9+B+WykaL/CtspqECRvE6BhM8vfJ7DWMfW/gMcv+EFZtk2lUCqMYgXjCORljWlJUxRJ9+pMdVupBwDaMsDysyBJFaKWozptaCtcHLDY3KdTyC31vv72OvNYB7NB8ohqHuuvYR6N++PccB73Ye15sXc/UPYdW4ysoYbLIV6Bu8DmgydJKRntJV9q6bOpX2KCXs9kVVQ8LBBT1SvVlU+qia10FvmIDJmTxYBwi73OQ3AHSYyphoScRnla7MzHdvjJpxUCGMb/SSVm+fxpFWc8+qLlBSpmVoxfoYxsNXVKIi4RJyRwWMUyRPexQIVGNOVI1LLyAtz1NxExlpISoycP1BoHRGtEhH2ZowZagrmBTE8qbTbLVXZAhBy48fNVo4c/X3KqLUz50NwMVdi5zeSHMRl1xbvQ3PsXtwkR3lsDBCpjx4suqt1fp6AosKspQmUWGv5NpNrqSloRd60+/vfqYwBvfeaRzyU1nAMO8RheWk6JzMDiHfsuNexU1N3tNbtxxOkqitrhqYwvBOPSmAkVWKZiSXphSYlbQoMM8crHue1j5NGFeJLmL2Bmsqe5J9GEimb6NC2NFqheCnf5OLs0cCWclNyeJnkUaCN2O7nTL4YTyxqhBvUQUc+pN93Ec+E/9MxRSPLKT5z9eQWo162WJuoGooN/OxQE9fT2X/fOfLAzmslCxgM/9dZK1s6nUgpVIUXlW4p5y+4PFh3ioF753SzOcfaxpNGtSMFHYQo+P+YawQ8VjkdOHfkM0SP2j5RAPAjtUeATjYebdRdQQ9Y0m+4m1e38yrV9h5HSExnHIcQe5gv1YHqY45tu0uOKdDTevqf9TGPr4xxJPMf9rxP9tfganJHhX84REjwJfgSEZVPaD6MgHnoFSFNalfAFaUnskOfMctEsRPxCc5KTZTIPJdIhGbboqsDhvZpBhE635do4HUr7B/v95BRies7OqVcZLINGlOs2FMGVe26gI+ypZEiKvybRkpSJYhxbEPydjNHTCy96UtU6iqmOeU3jPGg6TivOIcOYrnWC2BbBKmz9GROhXv3E3aFBZ7wNiS5M8DQF7V6ssSyckV0eAvfW1/l9mIEcQUNGaFqjGEFJxKBuolvOcyYZlH0eIWFnySy2CNGVlHaJlqSq1iJI0k3VohtNL6n2U0xVRJ2jF0rSQerak48t16LqpHBCxxfOGVqRWVX/IhAU9uzRV8siCXikODMTJ8nVFEq4493sYXmA2qbnwzxytMnTlFIT3tF37ew8waU5aBBa4S0mIPROcjGKKCn2R3hATOrTbKMOFUJF5rfh3v4oNZYwyHoyxSlqWkTM/bVXf6KwcJGfn5ZQZW7IQtmYdBEdiwg1T0Frw6imntCb+v2s1hdRS1uqzNvB4Xq/FJzkTnjtJJvaU7/+ZKk2bdZTaaDxOoyajxoqfVafhv4ePWFvhxj9TFenddvSDlvO9v00nXlG8KNmBb5aE6nu6+uSeHHPP7qjnYYMHgh6fv2Tx4h+BdYZlDkDZIM4qJ+uyxnR+hKt5ctaZzMjrMUrvtAgtCovZ6yy5gEQnWPGx50722b3QyW/3C3fggjMv+9qK0jslCL/07gtNit5gETATjj61d1gqFwPTUM8SvsQjcCy8nIXK04NONFx9Z4h90I3eqYEDiuzigt6bk8sLk7yhv7hKRpIABA++QcfzDG9aEj6uGLBsybSmxB41XKXSXUrp+SKJf8EplLnKqCUWrpxbi8y/OrYN+UQVaTjap8nj/G1N8tZCMNVKVTRzFSNOA4vljSJjApSJwKc/RHMdkTh0xIqrNHfxlN4zUBU9S5tXfXlS16vGhN7HJt6oMjk0n83gmubSmKEKSbezZgt+kkuNWUJockD3JfSWxHfdDSjuvDE/yhTckCR5SUJcvd3nX21y9O4t5gxOxF1wsOeqJTDHV5UGrmIhNmz8eDfIGvX8+KP/eKononRbXtn59dNreD6lyApYiKRbpDTxcWKswdD7Ot++XSBU/hXqTuFyo9zkYwVByNHTaQyXO8DNzfSnoC4vXa6NoYomjvnOk4t0ol0ewbLJhySH+5TlNrJUiEwC46M/qRryVKZYe/x2zSliypV1eAxydMSCDPxSKy3wmy6EwN90jQLzgaYUhz27l6tm4KXK+nZas+BGZGvRDLJ7KYyXLSLXTxstC4HOGsEy9nJZI3ugLEnczwrSHa1ae/gGNzAsdfKafx2yuwcmhuyh5p35JL9KL4rI2m4TdAPy6603roAQOqWIj9AdCMA/RRPgTxc9P8FNudRfMZ4pQS56ITnE1l3DYlmXPZRnLyOEUHIyQkrEK2MXtwJtblXRkzIrkD6OV7qzaLMMNU/OskXukVoWu2eOnnXh02paon0cx0e+Fx/9GU589AQ+rHfnrDChC5+UX4X2cRybHUCbaav8SfkmmOuwLpYIypxZTqZddzbFT+zQCvEaStdJcDqu9/24Ls4JqXDed4Wlh5G0rO/swlWSehJZSC2B7sv4WHxOk1vNwBcm/iwBXlrAx9XAdxbwSTUw7KwVJpVV/KVgLX1vbZRp/KMwOHs1L0rpLCSQSEQe7HSN5KomoHc3R5beIsdbjuaFOFFbR+HLMg6OH8zB8Xoc3JVxcPJgDk5WcCAtuLElbEhnTPB/L7bEyeCf4CccX8QfV8X1+Kf/AwxbU/E="
               }
            ],
            "step_warnings" : []
         }
      },
      {
         "arguments" : {
            "__SKIP__" : false
         },
         "measure_dir_name" : "BTAPUtilityTariffs",
         "name" : "btaputilitytariffs",
         "result" : {
            "completed_at" : "20170710T191722Z",
            "measure_class_name" : "UtilityTariffsModelSetup",
            "measure_display_name" : "Utility Tariffs Model Setup",
            "measure_name" : "utility_tariffs_model_setup",
            "measure_taxonomy" : "Economics.Life Cycle Cost Analysis",
            "measure_type" : "EnergyPlusMeasure",
            "measure_uid" : "7353d86e-d166-4f32-a572-27ce8e65ebb5",
            "measure_version_id" : "ca1cd5c0-0e66-4db9-a9a0-8b035cb1ed3d",
            "measure_version_modified" : "20170519T182314Z",
            "measure_xml_checksum" : "4A4E44A5",
            "started_at" : "20170710T191721Z",
            "stderr" : "",
            "stdout" : "[OpenStudio.Measure] <0> OSArgumentVector is deprecated, use OpenStudio::Measure::OSArgumentVector instead.\n",
            "step_errors" : [],
            "step_files" : [],
            "step_info" : [
               "added a tariffs ",
               "set the simulation timestep to 15 min to match the demand window of the tariffs",
               "removed existing lifecycle parameters named {7831c0c4-a5d7-4478-ba29-1ed70b2a2b16}",
               "added lifecycle cost parameters named FEMP LifeCycle Cost Parameters",
               "removed existing fuel escalation rates named U.S. Avg  Commercial-Electricity",
               "removed existing fuel escalation rates named U.S. Avg  Commercial-Natural gas",
               "removed existing fuel escalation rates named U.S. Avg  Commercial-Coal",
               "removed existing fuel escalation rates named U.S. Avg  Commercial-Residual Oil",
               "removed existing fuel escalation rates named U.S. Avg  Commercial-Distillate Oil",
[...]
zWIr2mw2lUSKyuSleeZ5wRa4lbv10IpLoWgpvWLJncjPuudOpeqFIS7m3Nkp2WG09N03jxStkdvqGO6kXvgz0d0rSuXrvisLruuFoEsWt+5edGGpcRmHavZX+eJIqjYso8PQ1Flfnt+OjH7uvuu8nMr6OktRNxalMp5GfCf8s3dQPxy82iq7Xy81kFPvT9F/kd15uev7Nl4fJfWixTEv43mFrpML5KDt+1w9lfD7ot0R+Ug5bnp9MA3d+4IfqfTjdiyAaffyhRfNlootDEOl8mu2vzsvmlXvjLj4t3FNt+Ut6bsbicPUunlDent6M263vHjN2xJZ6tU32T2kmPXihy9lfb4n6rJUf9R5VZ5i/A2ykph/1xqdFt7+1900VKA3YlIZsSltsSttsSjtsSrtsSntsSvtsSmsv37SU4otyhy/MHb44d/gC3eGLdIcv1B2+WHf4gt3hi/YBX7QPGOd0vmgf8EX7wDDaHzde0qyAsfQMhArOlZlQwZkyEyo4T2ZCBXOCmVDBjGAmVDAfmAkVzAZmQgVzgZlQUeEzVGKL7aKyZ6jEFt1FRc9QiS2+i0qeoRJbhBcVPEMlthgvKneGSnzzN1uMF9U6QyWTGH/U+EKzzKneGAZKBafJUKngNBkqFZwmQ6WCqcBQqWAqMFQqmAoMlQqmAkOlgqnAUKmo3plK8UV5UcUzleKL86KaZyrFF+lFVc9Uii/Wi+qeqRRftBdVPlMpxjmdL9qLip+pVGm042X0eBn9UkhjN7yM/tGGl9HrYOFl9HgZfZUNL6NXG15Gj5fR5xteRl/8TbyMvlxAbXgZ/dN4ZyNwgAMc4AAHOMABDnCAAxzgPHmcb+xVjqABDWhAAxrQgAY0oAENaEDzdGi+rXc2Agc4wAEOcIADHOAABzjAAc43hfMVm7O9GqX+jZ/O38obGYj2f9Ce7Vtsz7a8SE+jE5vzBDqxOY11Yuv3+tssjdishIZcQltcQttcQjtcQrtcQntcQvtcQmvP5dspscW2wxbcDlt0O2zh7bDFt8MW4A5bhDtsIe6wxfiALcYHfPM3W4wP2GJ8YBbj+h3X1rWqN1yz0aHPUvV2azY69CxQvdmajQ49A1RvtWajQ2e/RaM1KyGuiC4obxZd1qyEuIK6oLZZtFizEuKK64LCZtFfzWpm5Irsgqpm0VzNSogrsgtKWvXOaus6Fo3VrIToU2TRVs1KiE5+i6ZqVkJ08lu0VLMSopPfpqGanRJbbBdUNptuanZKbOFdUNxsWqnZKbFFeEF9s+mjZjdXssV4QYmzaaJmp8QW4wVVDh3U0EENHdQeEaKDmtrQQQ0d1NBBrWBDBzV0UDM6KnRQW/M3+D46qD3c0EHtfqvhhq1vrNEAcIADHOAABzjAAQ5wgAMc4Dx5nG+s/wBoQAMa0IAGNKABDWhAAxrQPB2av03fA+AABzjAAQ5wgAMc4AAHOMCp7vcVOqihYdo31TDtdDSR3iw7y+pxqESmwuk/jbZpgyfQNm3QWNu0nfyh0KotbriEhlxCW1xC21xCO1xCu1xCe1xC+1xCa0/f2ymxxbbDFtwOW3Q7bOHtsMW3wxbgDluEO2wh7rDF+IAtxgd88zdbjA/YYnxgFuP6bdPWtaq3TbPRoc9S9bZpNjr0LFC9bZqNDj0DVG+bZqNDZ79F2zQrIa6ILihvFm3TrIS4grqgtlm0TbMS4orrgsJm0TbNambkiuyCqmbRNs1KiCuyC0pa9bZp6zoWbdOshOhTZNE2zUqITn6LtmlWQnTyW7RNsxKik9+mbZqdEltsF1Q2m7Zpdkps4V1Q3GzaptkpsUV4QX2zaZtmN1eyxXhBibNpm2anxBbjBVUObdPQNg1t0x4Rom2a2tA2DW3T0DatYEPbNLRNMzoqtE1b8zf4PtqmPdzQNu1+q+EurW+suwBwgAMc4AAHOMABDnCAAxzgPHmcb6zpAGhAAxrQgAY0oAENaEADGtA8HZq/TbMD4AAHOMABDnCAAxzgAAc4wKnuh7Zpyw1t0+7bpjlPo23a8Am0TRs21jat3xuwdE2z0Rky6Wwx6Wwz6eww6ewy6ewx6ewz6aw9dG8lxBXRDldIO1wx7XAFtcMV1Q5XWDtcce1wBbbDFdkDrsgesM3VXJE94IrsgVFk67dHW5Oq3h3NQoY8Q9V7o1nIkHlfvTOahQyZ89X7olnIkPlu0RXNRocpjukyZtESzUaHKZTpGmbRD81Ghyma6QJm0QzNZh5kime6ell0QrPRYYpnunRVb4O2JmPRBc1Ghzw9Fj3QbHTIdLfogGajQ6a7Rf8zGx0y3W26n1kJcUU0XcFsWp9ZCXEFNV3EbPqeWQlxxTVdx2yanlnNjFyRTZcym45nVkJckU1XM7Q7Q7sztDt7RIh2Z2pDuzO0O0O7s4IN7c7Q7szoqNDubM3f4Ptod/ZwQ7uz+62Gu6u+sa4AwAEOcIADHOAABzjAAQ5wgPPkcb6xZgGgAQ1oQAMa0IAGNKABDWhA83Ro/jZNCoADHOAABzjAAQ5wgAMc4ACnuh/anS03tDtbtTsbPo1uZ1tPoNvZVoPdzvrbTO3OLISGXEJbXELbXEI7XEK7XEJ7XEL7XEKfPW1vo8QW2w5bcDts0e2whbfDFt8OW4A7bBHusIW4wxbjA7YYH/DN32wxPmCL8YFZjJt0QXuoZdMGrboOfZZsGqFV16FnAZtWaNV16BnAphladR06+63aoVkIcUV0QXmz6ohmIcQV1AW1zaopmoUQV1wXFDarvmgWMyNXZBdUNavWaBZCXJFdUNJsuqM91LFqj2YhRJ8iqwZpFkJ08lu1SLMQopPfqkmahRCd/HZt0myU2GK7oLLZdUqzUWIL74LiZtcszUaJLcIL6ptdvzSbuZItxgtKnF3LNBslthgvqHLomoauaeia9ogQXdPUhq5p6JqGrmkFG7qmoWua0VGha9qav8H30TXt4YauafdbDTdpfWPNBYADHOAABzjAAQ5wgAMc4ADnyeN8Yz0HQAMa0IAGNKABDWhAAxrQgObp0Pxteh0ABzjAAQ5wgAMc4AAHOMABTnU/dE1bbuiatuqatvU0uqZtP4GuaduNdU3byZ8JrdrhhktoyCW0xSW0zSW0wyW0yyW0xyW0zyW09vC9nRJbbDtswe2wRbfDFt4OW3w7bAHusEW4wxbiDluMD9hifMA3f7PF+IAtxgdmMa7fNW1dq3rXNBsd+ixV75pmo0PPAtW7ptno0DNA9a5pNjp09lt0TbMS4orogvJm0TXNSogrqAtqm0XXNCshrrguKGwWXdOsZkauyC6oahZd06yEuCK7oKRV75q2rmPRNc1KiD5FFl3TrITo5LfommYlRCe/Rdc0KyE6+W26ptkpscV2QWWz6Zpmp8QW3gXFzaZrmp0SW4QX1Debrml2cyVbjBeUOJuuaXZKbDFeUOXQNQ1d09A17REhuqapDV3T0DUNXdMKNnRNQ9c0o6NC17Q1f4Pvo2vaww1d0+63Gm7S+saaCwAHOMABDnCAAxzgAAc4wAHOk8f5xnoOgAY0oAENaEADGtCABjSgAc3Tofnb9DoADnCAAxzgAAc4wAEOcIADnOp+6Jq23NA1bdU1bftpdE3beQJd03Ya65rW7w1YmqbZ6AyZdLaYdLaZdHaYdHaZdPaYdPaZdNaeubcS4opohyukHa6YdriC2uGKaocrrB2uuHa4AtvhiuwBV2QP2OZqrsgecEX2wCiy9bujrUlVb45mIUOeoeqt0SxkyLyv3hjNQobM+ept0SxkyHy3aIpmo8MUx3QZs+iIZqPDFMp0DbNoh2ajwxTNdAGz6IVmMw8yxTNdvSwaodnoMMUzXbqqd0Fbk7FogmajQ54eixZoNjpkuls0QLPRIdPdov2ZjQ6Z7jbNz6yEuCKarmA2nc+shLiCmi5iNm3PrIS44pquYzY9z6xmRq7IpkuZTcMzKyGuyKarGbqdodsZup09IkS3M7Wh2xm6naHbWcGGbmfodmZ0VOh2tuZv8H10O3u4odvZ/VbDzVXfWFMA4AAHOMABDnCAAxzgAAc4wHnyON9YrwDQgAY0oAENaEADGtCABjSgeTo0f5seBcABDnCAAxzgAAc4wAEOcIBT3Q/dzpYbup2tup3tPI1uZ7tPoNvZboPdzvrbTO3OLISGXEJbXELbXEI7XEK7XEJ7XEL7XEKfPW1vo8QW2w5bcDts0e2whbfDFt8OW4A7bBHusIW4wxbjA7YYH/DN32wxPmCL8YFZjJt0QXuoZdMGrboOfZZsGqFV16FnAZtWaNV16BnAphladR06+63aoVkIcUV0QXmz6ohmIcQV1AW1zaopmoUQV1wXFDarvmgWMyNXZBdUNavWaBZCXJFdUNJsuqM91LFqj2YhRJ8iqwZpFkJ08lu1SLMQopPfqkmahRCd/HZt0myU2GK7oLLZdUqzUWIL74LiZtcszUaJLcIL6ptdvzSbuZItxgtKnF3LNBslthgvqHLomoauaeia9ogQXdPUhq5p6JqGrmkFG7qmoWua0VGha9qav8H30TXt4YauafdbDTdpfWPNBYADHOAABzjAAQ5wgAMc4ADnyeN8Yz0HQAMa0IAGNKABDWhAAxrQgObp0Pxteh0ABzjAAQ5wgAMc4AAHOMABTnU/dE1bbuiatuqatvs0uqbtPYGuaXuNdU3byZ8JrdrhhktoyCW0xSW0zSW0wyW0yyW0xyW0zyW09vC9nRJbbDtswe2wRbfDFt4OW3w7bAHusEW4wxbiDluMD9hifMA3f7PF+IAtxgdmMa7fNW1dq3rXNBsd+ixV75pmo0PPAtW7ptno0DNA9a5pNjp09lt0TbMS4orogvJm0TXNSogrqAtqm0XXNCshrrguKGwWXdOsZkauyC6oahZd06yEuCK7oKRV75q2rmPRNc1KiD5FFl3TrITo5LfommYlRCe/Rdc0KyE6+W26ptkpscV2QWWz6Zpmp8QW3gXFzaZrmp0SW4QX1Debrml2cyVbjBeUOJuuaXZKbDFeUOXQNQ1d09A17REhuqapDV3T0DUNXdMKNnRNQ9c0o6NC17Q1f4Pvo2vaww1d0+63Gm7S+saaCwAHOMABDnCAAxzgAAc4wAHOk8f5xnoOgAY0oAENaEADGtCABjSgAc3Tofnb9DoADnCAAxzgAAc4wAEOcIADnOp+6Jq23NA1bdU1be9pdE3bfwJd0/Yb65rW7w1YmqbZ6AyZdLaYdLaZdHaYdHaZdPaYdPaZdNaeubcS4opohyukHa6YdriC2uGKaocrrB2uuHa4AtvhiuwBV2QP2OZqrsgecEX2wCiy9bujrUlVb45mIUOeoeqt0SxkyLyv3hjNQobM+ept0SxkyHy3aIpmo8MUx3QZs+iIZqPDFMp0DbNoh2ajwxTNdAGz6IVmMw8yxTNdvSwaodnoMMUzXbqqd0Fbk7FogmajQ54eixZoNjpkuls0QLPRIdPdov2ZjQ6Z7jbNz6yEuCKarmA2nc+shLiCmi5iNm3PrIS44pquYzY9z6xmRq7IpkuZTcMzKyGuyKarGbqdodsZup09IkS3M7Wh2xm6naHbWcGGbmfodmZ0VOh2tuZv8H10O3u4odvZ/VbDzVXfWFMA4AAHOMABDnCAAxzgAAc4wHnyON9YrwDQgAY0oAENaEADGtCABjSgeTo0f5seBcABDnCAAxzgAAc4wAEOcIBT3Q/dzpYbup2tup3tP4luZ8P+t9/tLGNsqtuZs9Xv9R9szhZL8zNG2WE9slv1yG7XI7tTj+xuPbJ79cju1yO79qw/p25NeebUlGhOTZnm1JRqTk255tSUbE5N2ebUlG5OTfk2qCnfBnXVtZrybVBTvg1s8k2/q1yRcvUmc3yqume3egs6PlXdmax6gzo+Vd1ZrHr7Oj5V3RnMorkdo2w92aW9XLDohMcoW0+Caa8VLNrmMcrWk2PaCwWLHnuMVaGeLNNeJVg05GOUrSfLtJcI1bv3FalaNPNjlNU9tRat/hhldScwi0aAjLK6E5hFm0BGWd0JzKaJIKduTXmmvVKw6TjIqVtTqmkvFmzaE3Lq1pRt2usFm16GnHWipnzTXjLYND7k1K0p37RXDeiSiC6J6JL4iBBdEtWGLonokoguiQUbuiSiS6LRUaFL4pq/wffRJfHhhi6J91sNN2V+Y81EgAMc4AAHOMABDnCAAxzgAOfJ43xjPUZAAxrQgAY0oAENaEADGtCA5unQ/G16mwAHOMABDnCAAxzgAAc4wAFOdb+v0CXxvbyeythNZ7EU7TcbaJr4bTVNlPGNP5LiP66KvLdRNBXqgqn7nLf6b55GA0XnCTRQdJproKj+u2qnJiadIZPOFpPONpPODpPOLpPOHpPOPpPOeoMBGyGuiHa4QtrhimmHK6gdrqh2uMLa4YprhyuwHa7IHnBF9oBtruaK7AFXZA+MItugsd9DKYtOftVlyDNk0auvugyZ9xbd+KrLkDlv0W+vugyZ7zYd9Sx0mOKYLmM2TfIsdJhCma5hNn3vLHSYopkuYDat7CzmQaZ4pquXTXc6Cx2meKZLl0XDuYcyNh3mLHTI02PTQ85Ch0x3my5xFjpkutv0gbPQIdPdqtObjRBXRNMVzKp5m40QV1DTRcyqH5uNEFdc03XMqsWazczIFdl0KbPqmmYjxBXZdDV7JPR77Eexn86FI7qifToLN1RLqp3u/3HDbt/p5v/9Wo666heYXy5z/bUf9F692tra32ewGNRvMazfYqt+i+36LXbqt9it32Kvfov9+i3WKntdHg3kt9NAgjsNZLjTQIo7DeS400CSOw1kudNAmjsN5PmggTwfNFHHG8jzQQN5PqiW54Pcw00pj77esmo4HAz2dhgs6KvBZkFfDDYL+lqwWdBTLpsFPeOyWdATLpsFPd+yWdDTLZtFwbKKz6OB/C5YVvF5NJDhBcsqPo8GcrxgWcXn0UCWFyyr+DwayPOCZRWfRxN1vIE8L1hW8XlUy/Oh8ngT+4THYF9vWeU4u7vDIYMFfTXYLOiLwWZBXws2C3rKZbOgZ1w2C3rCZbOg51s2C/reKDaLghsC+TzoO6r4POibrfg86Puw+DzoW7T4POj7Evk86FsW+Tzouxn5POgbHfk8GsjzgmUVn0cTdbyBQl6wrOLzqFbKt5TH+8mM8tjTW1btZ9v2jwwW9NVgs6AvBpsFfS3YLOhlFZsFvaxis6CXVWwW9LKKzYKebtksCpZVfB70sorPg15W8XnQyyo+D3pZxedBL6v4POhlFZ8Hvazi86CXVXweDeR5wbKKz6OJOt5AIS9YVvF5VCvl28rjP9KjPHb1llWvXx8d7e4yWNBXg82CvhhsFvS1YLOgl1VsFvSyis2CXlaxWdDLKjYLerplsyhYVvF50MsqPg96WcXnQS+r+DzoZRWfB72s4vOgl1V8HvSyis+DXlbxeTSQ5wXLKj6PJup4A4W8YFnF51GtlO/kS7eZpDx29JZVR0c7OywW9NVgs6AvBpsFfS3YLOhlFZsFvaxis6CXVWwW9LKKzYKebtksCpZVfB70sorPg15W8XnQyyo+D3pZxedBL6v4POhlFZ8Hvazi86CXVXweDeR5wbKKz6OJOt5AIS9YVvF5VCvlu8rj14i6LX6wrbes2tsbDLa3GSzoq8FmQV8MNgv6WrBZ0MsqNgt6WcVmQS+r2CzoZRWbRVHfKSaLwmZrXB5F3aq4PIoaWXF5FPW44vIoan/F5VHU843Lo6gdHJdHUac4Lo+iJnJcHg3kecGyis+jiTreQCEvWFbxeZSX8g86HV6XPZnFoQjl7aqBbN43tp3cjDt5B9jSVrGrxs6JTH+MZqGXtLf7HeE42x0xVP812NZrN3uXYdw3pfa8IzeV4yiev7rzk0Vb5Pvj1+genQmcxJ6M381Ul2LtHRXHfJ3jV+kms1guMFSj5eV5r7k9N4YxjGEMYxjDGMYwhjGMYQxjGMMYxjCGMYxhDGMYwxjGMIYxjGEMYxjDGMYwhjGMYQxjGMMYxjCGMYxhDGMYwxjGMIYxjGEMYxjDGMYwhp/V8LwX3cg49j35q6serHV6fcvnVdWjscn6o7GnMvZlsny8ttVZPUA8DaK0F/ihLH1ENvnSc7rlT9YmvfzV89MocFM/CjOoVpLKafdCXkaxbOk9+fxWjmXorR/Q4rP2Tr8jhurJ5b56kFn90wrkZarASqRXsr3zsUyPw1Sdn8zichaOctL2hvizRGJFKO/3Pit9lltt/qVopxM/6SX5VdEzUtuDnXrZ+Tt2R5P2X8Cmait89eh4xr7UPZ9Gia8EX2cf6xzNalMyX6CKo1szpBWWH3pS5UPX6Rjuvdququ546ctAxVt7eU4XeTKOo9lUeuL778U/lp/f9c4nbrJ8/l0l2MbD0fkXR7MT0nPH4zfKoxfIcJxOxEsxEP8WrVdB0BIH699IAn8k211n46z/YaM03x4dSRSL9lV2KP0fxFVmswzVpa/67J/ZjGN+gdSmwnipd3b1ofdRzsXh4eHi5FVTzFWXl/3K9FBX20Us3Y9Vdv5kuI/p99X5Wh7doQprFQzLSMkbOfTO3STxx6H0jlSLiOQsP5Mfqp3K1YWezpJJu+q1yC7pweJ6Vs+kIDjQOcqe+mZVlySNo49Sz2fx3apO0dQd+elcz2r55cpHlVusrKqqrCaS9WmlSnoYTz5qW6Xz+sQjusIxVTNJN33WT528qmp9/1PZmkJtm5vi9z/ei/+e/PFOnJ68e//Lbz+Jtyc//XIkfj5+d6wn8CabteWdq5ZoIo1EEsWpCGfXWRyMRN7SJBFuMsoWL3441lBcnXul86Ayux1xoT+5xDKdxaGYunEi3wSRm7ZdNeVvZJfywWcX+WdaJ7N8ifbAdnkIZcKf6u30cr/+zNM9T/b2C09eurMgFdM4yuYw+aIjXny3t3d0dHz8oubGM8ABDnCAAxzgAAc4wAEOcIDzPHFEMrvOfgQWnlQfCs+dK6JYeqABDWhAAxrQgAY0oAENaEADmmKa2/zWrM9oLoKZBA5wgAMc4AAHOMABDnCAAxzgVMG5f2+go94beDqj3hs4dPK/sL16tbW1vw9SkIIUpCAFKUhBClKQghSkIAUpSJ8G6SAndVOKtJ+TDoeDwd4OSEEKUpCCFKQgBSlIQQpSkIIUpCB9GqRDRfom9gnSwX5O6ji7u8MhSEEKUpCCFKQgBSlIQQpSkIIUpCB9GqRbivT9ZEaR7uWk+9m2/SNIQQpSkIIUpCAFKUhBClKQghSkIH0apNuK9D/So0h3c9LXr4+OdndBClKQghSkIAUpSEEKUpCCFKQgBenTIN3JfzMxkxTpTk56dLSzA1KQghSkIAUpSEEKUpCCFKQgBSlInwrpriL9NaI6Cw62c9K9vcFgexukIAUpSEEKUpCCFKQgBSlIQQpSkDZGukLxYve2XSp210v9NJCnE3cqe6m8S9svfo5mcVKOMX+852v/WoaJH4WBTHKFEonNTfHK84QrciVx66cTkUTXUnjDkj2Tm3HPnU5l6LVbyru1UbLDauu5aRq3W3etjtjpG+40z3Ya6O+UpPNALvC6bjiaRHG2fyuQlwa0S43LKEy7t9IfT1KlcREFnr7G4tqcTrv/i0LpiJPLS38kxek86Q7FmyDuOuJ0NOm+Ej//Hoyu024SzbLL8L/fxG/HRz+qr6XyWgzF76f/Eyejkfrui42iC/tyMxnF/jT9F/mdl5uef/PlYXIfWizTEr532BqpqD/KTpTrhzI+Hw5aIj97hy3PT6aBOz/wwyAb6l4E0ejjDy2aLxNdHIJI59Nsf3UCN6/cG3fxaeGeartxYxWg4lB4/vU0kL1Q3p7ejNut7x4zdsRWv5//U5pwStZzUzfTPfuzFbgXMmgdtDx56c6CVEzj6NIPZKuzGDm/ax04vX6ndeMGM7n875Gal7J9sqnm6Oj4uPWpo6UzYNIZMulsMelsM+nsMOnsMunsMensM+k4fS4hroh2uELa4YpphyuoHa6odrjC2uGKa4crsB2uyB5wRfaAba7miuwBV2QPjCJbJLPr67UXVWtVtFh6BjLkOTKTIc+QmQx5fsxkyLw3kyGz3kyGzHkzGTLjzWTIfDeToQuZoQ5THNNlzFCHKZLpImaowxTLdAkz1GGKZrqAGeowxTNdvgx1uOZlpnima5ehjn483/phal62LtRH+jrk6THUIU+PoQ55egx1yHQ31CHT3VCHTHdDHTLdDXXIdDfUoeuXqRBXRNMVzFSIK6bpGmYqxBXVdBUzFeKKa7qOmQpxRTZdyUyF2OZqrsimi5mpkH5k3//lovTNwlSZ66/9oLd49TCDxaB+i2H9Flv1W2zXb7FTv8Vu/RZ79Vvs12+xVtnr8mggv50GEtxpIMOdBlLcaSDHnQaS3Gkgy50G0txpIM8HDeT5oIk63kCeDxrI80G1PC99gaPesmrxhkcGC/pqsFnQF4PNgr4WbBb0lMtmQc+4bBb0hMtmQc+3bBb0dMtmUbCs4vNoIL8LllV8Hg1keMGyis+jgRwvWFbxeTSQ5QXLKj6PBvK8YFnF59FEHW8gzwuWVXwe1fK89D1ZesuqxYu0GCzoq8FmQV8MNgv6WrBZ0FMumwU947JZ0BMumwU937JZ0PdGsVkU3BDI50HfUcXnQd9sxedB34fF50HfosXnQd+XyOdB37LI50HfzcjnQd/oyOfRQJ4XLKv4PJqo4w0U8oJlFZ9HtVJe+joSvWXV4n0lDBb01WCzoC8GmwV9Ldgs6GUVmwW9rGKzoJdVbBb0sorNgp5u2SwKllV8HvSyis+DXlbxedDLKj4PelnF50Evq/g86GUVnwe9rOLzoJdVfB4N5HnBsorPo4k63kAhL1hW8XlUK+WlXd/1llWLtvAMFvTVYLOgLwabBX0t2CzoZRWbBb2sYrOgl1VsFvSyis2Cnm7ZLAqWVXwe9LKKz4NeVvF50MsqPg96WcXnQS+r+DzoZRWfB72s4vOgl1V8Hg3kecGyis+jiTreQCEvWFbxeVQr5aXNdfWWVYvuuwwW9NVgs6AvBpsFfS3YLOhlFZsFvaxis6CXVWwW9LKKzYKebtksCpZVfB70sorPg15W8XnQyyo+D3pZxedBL6v4POhlFZ8Hvazi86CXVXweDeR5wbKKz6OJOt5AIS9YVvF5VCvlpT0M9ZZViyaHDBb01WCzoC8GmwV9Ldgs6GUVmwW9rGKzoJdVbBb0sorNoqjvFJNFYbM1Lo+iblVcHkWNrLg8inpccXkUtb/i8ijq+cblUdQOjsujqFMcl0dREzkujwbyvGBZxefRRB1voJAXLKv4PMpL+QedDq/L9s3iUITydtVANu8b205uxp28A2xpq9hVD+hEpj9Gs9BL2tv9jnCc7Y4Yqv8abOu1m73LMO5bW3vekZvKcRTPX935yaKH8v3xazSazgROYk/G72aqpbH2jopjvs7xq3STWSwXGKor8/K819zkG8MYxjCGMYxhDGMYwxjGMIYxjGEMYxjDGMYwhjGMYQxjGMMYxjCGMYxhDGMYwxjGMIYxjGEMYxjDGMYwhjGMYQxjGMMYxjCGMYxhDGMYw89qeN6LbmQc+5781VUP1jq9vuXzqurR2GT90dhTGfsyWT5e2+qsHiCeBlHaC/xQlj4im3zpOd3yJ2uTXv7q+WkUuKkfhRlUK0nltHshL6NYtvSefH4rxzL01g9o8Vl7p98RQ/Xkcl89yKz+aQXyMlVgJdIr2d75WKbHYarOT2ZxOQtHOWl7Q/xZIrEilPd7n5U+y602/1K004mf9JL8qugZqe3BTr3s/B27o0n7L2BTtRW+enQ8Y1/qnk+jxFeCr7OPdY5mtSmZL1DF0a0Z0grLDz2p8qHrdAz3Xm1XVXe89GWg4q29PKeLPBnH0WwqPfH99+Ify8/veucTN1k+/64SbOPh6PyLo9kJ6bnj8Rvl0QtkOE4n4qUYiH+L1qsgaImD9W8kgT+S7a6zcdb/sFGab4+OJIpF+yo7lP4P4iqzWYbq0ld99s9sxjG/QGpTYbzUO7v60Pso5+Lw8HBx8qop5qrLy35leqir7SKW7scqO38y3Mf0++p8LY/uUIW1CoZlpOSNHHrnbpL441B6R6pFRHKWn8kP1U7l6kJPZ8mkXfVaZJf0YHE9q2dSEBzoHGVPfbOqS5LG0Uep57P4blWnaOqO/HSuZ7X8cuWjyi1WVlVVVhPJ+rRSJT2MJx+1rdJ5feIRXeGYqpmkmz7rp05eVbW+/6lsTaG2zU3x+x/vxX9P/ngnTk/evf/lt5/E25OffjkSPx+/O9YTeJPN2vLOVUs0kUYiieJUhLPrLA5GIm9pkgg3GWWLFz8cayiuzr3SeVCZ3Y640J9cYpnO4lBM3TiRb4LITduumvI3skv54LOL/DOtk1m+RHtguzyEMuFP9XZ6uV9/5umeJ3v7hScv3VmQimkcZXOYfNERL77b2zs6Oj5+UXPjGeAABzjAAQ5wgAMc4AAHOMB5njgimV1nPwILT6oPhefOFVEsPdCABjSgAQ1oQAMa0IAGNKABTTHNbX5r1mc0F8FMAgc4wAEOcIADHOAABzjAAQ5wquDcvzfQUe8NPJ1R7w0cOvlf2F692tra3wcpSEEKUpCCFKQgBSlIQQpSkIIUpE+DdJCTuilF2s9Jh8PBYG8HpCAFKUhBClKQghSkIAUpSEEKUpA+DdKhIn0T+wTpYD8ndZzd3eEQpCAFKUhBClKQghSkIAUpSEEKUpA+DdItRfp+MqNI93LS/Wzb/hGkIAUpSEEKUpCCFKQgBSlIQQpSkD4N0m1F+h/pUaS7Oenr10dHu7sgBSlIQQpSkIIUpCAFKUhBClKQgvRpkO7kv5mYSYp0Jyc9OtrZASlIQQpSkIIUpCAFKUhBClKQghSkT4V0V5H+GlGdBQfbOene3mCwvQ1SkIIUpCAFKUhBClKQghSkIAUpSBsjXaF4sXvbLhW766V+GsjTiTuVvVTepe0XP0ezOCnHmD/e87V/LcPEj8JAJrlCicTmpnjlecIVuZK49dOJSKJrKbxhyZ7JzbjnTqcy9Not5d3aKNlhtfXcNI3brbtWR+z0DXeaZzsN9HdK0nkgF3hdNxxNojjbvxXISwPapcZlFKbdW+mPJ6nSuIgCT19jcW1Op93/RaEciDd+KMVpGsXuOPvfedLdEm+CuOuI09Gk+0r8/Hswuk67STTLLsb/fhO/HR/9qL6WymuxJX4//Z84GY3Ud19sFF3el5vJKPan6b/I77zc9PybLw+T+9BimZbwvcPWSMX+UXa63Oww4/PhsCXyc3jY8vxkGrjzAz8MsqHuRRCNPv7Qovky0cUhiHQ+zfZXp3Hzyr1xF58W7qm2GzdWYSoOhedfTwPZC+Xt6c243fruMWNHbPX7+T+laadkPTd1M92zP1uBeyGD1kHLk5fuLEjFNI4u/UC2OouR87vWgdPrd1o3bjCTy/8eqdkp2yebcI6Ojo9bnzpaOgMmnSGTzhaTzjaTzg6Tzi6Tzh6Tzj6TjtPnEuKKaIcrpB2umHa4gtrhimqHK6wdrrh2uALb4YrsAVdkD9jmaq7IHnBF9sAoskUyu75ee121VkWLpWcgQ54jMxnyDJnJkOfHTIbMezMZMuvNZMicN5MhM95Mhsx3Mxm6kBnqMMUxXcYMdZgimS5ihjpMsUyXMEMdpmimC5ihDlM80+XLUIdrXmaKZ7p2Gerox/OtH6bmZetCfaSvQ54eQx3y9BjqkKfHUIdMd0MdMt0Ndch0N9Qh091Qh0x3Qx26fpkKcUU0XcFMhbhimq5hpkJcUU1XMVMhrrim65ipEFdk05XMVIhtruaKbLqYmQrpR/b93y9K3y9Mlbn+2g96ixcQM1gM6rcY1m+xVb/Fdv0WO/Vb7NZvsVe/xX79FmuVvS6PBvLbaSDBnQYy3GkgxZ0GctxpIMmdBrLcaSDNnQbyfNBAng+aqOMN5PmggTwfVMvz0tc46i2rFu95ZLCgrwabBX0x2Czoa8FmQU+5bBb0jMtmQU+4bBb0fMtmQU+3bBYFyyo+jwbyu2BZxefRQIYXLKv4PBrI8YJlFZ9HA1lesKzi82ggzwuWVXweTdTxBvK8YFnF51Etz0vflqW3rFq8TovBgr4abBb0xWCzoK8FmwU95bJZ0DMumwU94bJZ0PMtmwV9bxSbRcENgXwe9B1VfB70zVZ8HvR9WHwe9C1afB70fYl8HvQti3we9N2MfB70jY58Hg3kecGyis+jiTreQCEvWFbxeVQr5aUvJdFbVi3eWsJgQV8NNgv6YrBZ0NeCzYJeVrFZ0MsqNgt6WcVmQS+r2Czo6ZbNomBZxedBL6v4POhlFZ8Hvazi86CXVXwe9LKKz4NeVvF50MsqPg96WcXn0UCeFyyr+DyaqOMNFPKCZRWfR7VSXtr7XW9ZtWgOz2BBXw02C/pisFnQ14LNgl5WsVnQyyo2C3pZxWZBL6vYLOjpls2iYFnF50Evq/g86GUVnwe9rOLzoJdVfB70sorPg15W8XnQyyo+D3pZxefRQJ4XLKv4PJqo4w0U8oJlFZ9HtVJe2mJXb1m16MHLYEFfDTYL+mKwWdDXgs2CXlaxWdDLKjYLelnFZkEvq9gs6OmWzaJgWcXnQS+r+DzoZRWfB72s4vOgl1V8HvSyis+DXlbxedDLKj4PelnF59FAnhcsq/g8mqjjDRTygmUVn0e1Ul7ayVBvWbVodchgQV8NNgv6YrBZ0NeCzYJeVrFZ0MsqNgt6WcVmQS+r2CyK+k4xWRQ2W+PyKOpWxeVR1MiKy6OoxxWXR1H7Ky6Pop5vXB5F7eC4PIo6xXF5FDWR4/JoIM8LllV8Hk3U8QYKecGyis+jvJR/0OnwumziLA5FKG9XDWTzvrHt5GbcyTvAlraKXXWCTmT6YzQLvaS93e8Ix9nuiKH6r8G2XrvZuwzjvsG15x25qRxH8fzVnZ8sOinfH79Gu+lM4CT2ZPxuphoba++oOObrHL9KN5nFcoGhejMvz3vNrb4xjGEMYxjDGMYwhjGMYQxjGMMYxjCGMYxhDGMYwxjGMIYxjGEMYxjDGMYwhjGMYQxjGMMYxjCGMYxhDGMYwxjGMIYxjGEMYxjDGMYwhjH8rIbnvehGxrHvyV9d9WCt0+tbPq+qHo1N1h+NPZWxL5Pl47WtzuoB4mkQpb3AD2XpI7LJl57TLX+yNunlr56fRoGb+lGYQbWSVE67F/IyimVL78nnt3IsQ2/9gBaftXf6HTFUTy731YPM6p9WIC9TBVYivZLtnY9lehym6vxkFpezcJSTtjfEnyUSK0J5v/dZ6bPcavMvRTud+Ekvya+KnpHaHuzUy87fsTuatP8CNlVb4atHxzP2pe75NEp8Jfg6+1jnaFabkvkCVRzdmiGtsPzQkyofuk7HcO/VdlV1x0tfBire2stzusiTcRzNptIT338v/rH8/K53PnGT5fPvKsE2Ho7OvzianZCeOx6/UR69QIbjdCJeioH4t2i9CoKWOFj/RhL4I9nuOhtn/Q8bpfn26EiiWLSvskPp/yCuMptlqC591Wf/zGYc8wukNhXGS72zqw+9j3IuDg8PFyevmmKuurzsV6aHutouYul+rLLzJ8N9TL+vztfy6A5VWKtgWEZK3sihd+4miT8OpXekWkQkZ/mZ/FDtVK4u9HSWTNpVr0V2SQ8W17N6JgXBgc5R9tQ3q7okaRx9lHo+i+9WdYqm7shP53pWyy9XPqrcYmVVVWU1kaxPK1XSw3jyUdsqndcnHtEVjqmaSbrps37q5FVV6/ufytYUatvcFL//8V789+SPd+L05N37X377Sbw9+emXI/Hz8btjPYE32awt71y1RBNpJJIoTkU4u87iYCTyliaJcJNRtnjxw7GG4urcK50Hlfn/t3e2vW3bWhx/fz8FrwYsCq6tWHLsPKzZReo464C1KeoOwxoUAW3RthJZEiQqiTHku0+U5Vw7iWpSD229++eLOBXFP3+kzjlkS/WYNshQPriEjMehRwIaRuzc9SnXqQj5u8mjXLk2TK9JTebmLdpKt9kQNgk/1Jvp5XH/mbp76uz6js3GNHY5CUI/iWFsp0F2fjg87PX6/Z2aE88ABzjAAQ5wgAMc4AAHOMABzj8Th0TxLPkrMLGZuEhsOhdEIbNBAxrQgAY0oAENaEADGtCABjRfprlLX816QjN0YwYc4AAHOMABDnCAAxzgAAc4wCmC8/i9gab43sBBnPe9gW0zPWE7Pd3fPzoCKUhBClKQghSkIAUpSEEKUpCCFKTbQWqlpJTnkbZS0nbbsg67IAUpSEEKUpCCFKQgBSlIQQpSkIJ0O0jbgvQ8dHJIraOU1DQPDtptkIIUpCAFKUhBClKQghSkIAUpSEG6HaT7gvTjNM4jPUxJj5LSeQ1SkIIUpCAFKUhBClKQghSkIAUpSLeDtCNI/2B2HulBSnp21usdHIAUpCAFKUhBClKQghSkIAUpSEEK0u0g7ab/MhGzPNJuStrrdbsgBSlIQQpSkIIUpCAFKUhBClKQgnRbSA8E6Vs/L7Og1UlJDw8tq9MBKUhBClKQghSkIAUpSEEKUpCCFKRfjXSJYof0Tt8odm9wh7tsMKUBMzi75/rOGz8Oo80Y8+ctz5wZ8yLH91wWpQobJPb2yKltE0pSJXLn8CmJ/BkjdntDy+h2YtAgYJ6ta6JvbXdDg2UxKOehrt1rDdJtKTaaJ40s+UYRn7tsgdek3mjqh0l7zWVjBdpMY+x7vHnHnMmUC42h79ryGotnMwian3yPtcnr2L0hA+6HdMLIYB4198m5GzZNMhhNm6fkzXt3NONNRiNOPr0j7/q91+IuzmZkn7wffCIXo5G4dWf3S0/31V40Cp2A/5x7z6s927l9uTq3Tb5YokUc+0QbCdPvJbNFHY+FV+19jaRTeKLZThS4dH7seG5S1Ry6/ujmJy2fLxFdDIHweZC0F7O4d01v6eLqF1uKcktDYaXkhNjOLHCZ4bG7we1E1354ztgg+61W+mOj1wlZm3Ka6F7+pbl0yFztWLPZmMYuJ0Hojx2XaY1FzdW9dmwarYZ2S92YacfdI+NopRweNbSRCFWJQhJ9er1+X3toSKlatai2a1Hdr0W1U4tqtxbVg1pUD2tRPapF1WzVI1uPd5n1uJdZj3+Z9TiYWY+HmfW4mFmPj5n1OJlZj5dZ9XiZVdMaVo+XWfV4mVXCy0gUz2Zr3/5dYIcQMltBVHJu1UQlZ1ZNVHJe1UQlY5eaqGTkUhOVjFtqopJRS01UMmapicpuDBRVa/Ep2W2BomotXiW7KVBUrcWvZLcEiqq1eJbshkBRtRbfkt0OKKrWs17V4luyewFF1aK+ded4vOw2YChukFeVnFZFVclpVVSVnFZFVcmQpagqGbIUVSVDlqKqZMhSVJUMWYqqsvsBVdl6vEt2R6AqW49/ye4JVGXr8TDZXYGqbD0+JrsvUJWtx8tkdwaqsjWtYfV4mezmQFVWycs+yxw4ZEeK5IR47G55npEeY+jR7aSRHkhsPLlYnktGjL/2Y8+O9E6rQUyz0yBt8ZvVkTv9uE8wHo9bbbtHOZv44fz03okW53qPUyFx+JkIXIQ2Cz/E4phNuqHgmK9zvGU0ikO2wBAnhdkjKHucm54jrXc1YKHDogw36Sl7IIHrc0Mcbm3sMnpp3JtJIyO1u8B3KXd8L4HSIs6C5pCN/ZBpcpb0G5swz14f0OKa3k2soC0sQRyGmeJHdlq68SB5KWtcTRjve1zMT9LFOPZGKam+S/6SOC4VhOyx9eVG3xDFGROdT50osWvRTq4jUVYaGcn89eloqv8PWFVtiZ+dDWa6V4EfOULwLLksM5plETIvUIX+nRrSEsvxbCYct2k2FFsvy3XRhmOHucLe9GxOF34yCf04YDb58Ufy7+z6vXE1pVEWT4SD7a7Wzl+sTSbEoJPJuejDcJk34VPyiljkv0Q7dV2NHK/fEbnOiOlNc/ey9Xl3o789G4kfEv06GUrrJ3KddJOZatavuPafE2KqPyBRhBlnepfXn40bloS3k5PF5BVTTFWzx36tOtRlGYaM3hRp/KDYRvV+MV/Z6E6EWQtjyCwlXRiNq8WrQMxOXwaKLtOZ/FxsKpcPOoijqV70WSSP9HjxPIt7kusey4zSEHcW7SXioX/D5PpZ3Fu0Jz+gI4fP5brKbi48qrSLZVdFVZaBZD2sFHEP5eAjytKd1wMPaRJTVU3F3eRZHxrpqip1/8OmPYUoe3vk/e8fyZ8Xv38gg4sPH3999wv57eKXX3vkTf9DX07gPIna7J6KLRrhPon8ZCPtxbPEDkYk3SJGhEajZPPieBMJxeXcC52VlZk2yFA+uISMx6FHAhpG7Nz1KdepCPm7yaNcuTZMr0lN5uYt2kq32RA2CT98g1c2nxzAZu9ligPVb/IGKXCAAxzgAAc4wAEOcIADHOBsPc7zF1wEUchs0IAGNKABDWhAAxrQgAY0oAHNl2mevRIoaMQrfsABDnCAAxzgAAc4wAEOcIADnG+YKPEjmwUspDwOGdHPd5Eq8btKlfgHFRb3hqUfp7OhwzxOxCMTeQ+ZHSfz3yQHrfPtSIHY2YIUiJ2vlgIx/Y+nRVMwVaTTrkhnvyKdTkU63Yp0DirSOaxI56ginbXcAqWEqrJosyqTNquyabMqozarsmqzKrM2q7JrsyrDNquybKsqy7Yqi9VVWbZVlWVbSpYtn7JvTap4kr4SMrkzVDwRXwmZXL8vnmyvhEyuzxdPqFdCJtffSyTNK6NTkR3nL2MlUuGV0anIlPPXsBIJ7sroVGTN+QtYibR1ZeJgRfacv3qVSEZXRqcie85fuoqnmFuTKZFUroxO7vSUSBxXRifX3Uskhyujk+vuJRLAldHJdfcySd5KCVVl0fkrWJnUbaWEqjLq/EWsTEK2UkJV2XX+OlYmzVqpyFiVZecvZWWSp5USqsqy81czpETbipRoqEY1qlGNalSjGtWoRjWqUY1qVKMa1aj+nqrnhn/LwtCx2Vsq/qHKNFpIib8yEqTEfyxIia9UkBIfKfEVClLiPy1Iif+0ICW+YkFKfKTEf7EgJT5wgAMc4AAHOMABDnCAAxzgAGcbEkqCBjSgAQ1oQAMa0IAGNKABzfbQ/N8ksgQOcIADHOAABzjAAQ5wgAOc4v19g5T4Z86MeZHjey6LIiTE/74S4vvhDemPx87IYd5o/pgG/+smwM/uflKz+ufl74vPR/Xsl8ePoW/PxeeUz9yf//U3gJZqmQ=="
               },
               {
                  "name" : "annual_peak_electric_demand",
                  "units" : "kW",
                  "value" : 98.738619999999997
               },
               {
                  "name" : "first_year_capital_cost",
                  "units" : "$",
                  "value" : 0
               },
               {
                  "name" : "annual_utility_cost",
                  "units" : "$",
                  "value" : 0
               },
               {
                  "name" : "total_lifecycle_cost",
                  "units" : "$",
                  "value" : 0
               }
            ],
            "step_warnings" : []
         }
      }
   ],
   "updated_at" : "20170710T191834Z",
   "weather_file" : "USA_CO_Denver.Intl.AP.725650_TMY3.epw"
}
