{
   "completed_at" : "20170710T192222Z",
   "completed_status" : "Success",
   "created_at" : "2017-07-10 19:20:25 +0000",
   "current_step" : 5,
   "description" : "",
   "eplusout_err" : "Program Version,EnergyPlus, Version 8.7.0-78a111df4a, YMD=2017.07.10 19:21,IDD_Version 8.7.0\n   ************* IDF Context for following error/warning message:\n   ************* Note -- lines truncated at 300 characters, if necessary...\n   *************      5 Building,\n   ************* indicated Name=NECB 2011-Warehouse-NECB HDD Method-CAN_BC_Prince.Rupert.718980_CWEC.epw created: 2017-07-10 19:20:30 +0000\n   ************* Only last 1 lines before error line shown.....\n   *************      6   NECB 2011-Warehouse-NECB HDD Method-CAN_BC_Prince.Rupert.718980_CWEC.epw created: 2017-07-10 19:20:30 +0000, !- Name\n   ** Warning ** IP: IDF line~6 Alpha Argument length exceeds maximum, will be truncated=  NECB 2011-Warehouse-NECB HDD Method-CAN_BC_Prince.Rupert.718980_CWEC.epw created: 2017-07-10 19:20:30 +000\n   **   ~~~   ** Will be processed as Alpha=NECB 2011-WAREHOUSE-NECB HDD METHOD-CAN_BC_PRINCE.RUPERT.718980_CWEC.EPW CREATED: 2017-07-10 19:20:30 +0000\n   ************* Beginning Zone Sizing Calculations\n   ** Warning ** ProcessScheduleInput: Schedule:Day:Interval=\"ECONOMIZER MAX OA FRACTION 100 PCT DEFAULT\", Blank Schedule Type Limits Name input -- will not be validated.\n   ** Warning ** ProcessScheduleInput: Schedule:Day:Interval=\"SCHEDULE DAY 1\", Blank Schedule Type Limits Name input -- will not be validated.\n   ** Warning ** ProcessScheduleInput: Schedule:Day:Interval=\"SCHEDULE DAY 10\", Blank Schedule Type Limits Name input -- will not be validated.\n   ** Warning ** ProcessScheduleInput: Schedule:Day:Interval=\"SCHEDULE DAY 11\", Blank Schedule Type Limits Name input -- will not be validated.\n   ** Warning ** ProcessScheduleInput: Schedule:Day:Interval=\"SCHEDULE DAY 12\", Blank Schedule Type Limits Name input -- will not be validated.\n   ** Warning ** ProcessScheduleInput: Schedule:Day:Interval=\"SCHEDULE DAY 13\", Blank Schedule Type Limits Name input -- will not be validated.\n   ** Warning ** ProcessScheduleInput: Schedule:Day:Interval=\"SCHEDULE DAY 14\", Blank Schedule Type Limits Name input -- will not be validated.\n   ** Warning ** ProcessScheduleInput: Schedule:Day:Interval=\"SCHEDULE DAY 15\", Blank Schedule Type Limits Name input -- will not be validated.\n   ** Warning ** ProcessScheduleInput: Schedule:Day:Interval=\"SCHEDULE DAY 16\", Blank Schedule Type Limits Name input -- will not be validated.\n   ** Warning ** ProcessScheduleInput: Schedule:Day:Interval=\"SCHEDULE DAY 17\", Blank Schedule Type Limits Name input -- will not be validated.\n   ** Warning ** ProcessScheduleInput: Schedule:Day:Interval=\"SCHEDULE DAY 18\", Blank Schedule Type Limits Name input -- will not be validated.\n   ** Warning ** ProcessScheduleInput: Schedule:Day:Interval=\"SCHEDULE DAY 19\", Blank Schedule Type Limits Name input -- will not be validated.\n   ** Warning ** ProcessScheduleInput: Schedule:Day:Interval=\"SCHEDULE DAY 2\", Blank Schedule Type Limits Name input -- will not be validated.\n   ** Warning ** ProcessScheduleInput: Schedule:Day:Interval=\"SCHEDULE DAY 5\", Blank Schedule Type Limits Name input -- will not be validated.\n   ** Warning ** ProcessScheduleInput: Schedule:Day:Interval=\"SCHEDULE DAY 6\", Blank Schedule Type Limits Name input -- will not be validated.\n   ** Warning ** ProcessScheduleInput: Schedule:Day:Interval=\"SCHEDULE DAY 7\", Blank Schedule Type Limits Name input -- will not be validated.\n   ** Warning ** ProcessScheduleInput: Schedule:Day:Interval=\"SCHEDULE DAY 8\", Blank Schedule Type Limits Name input -- will not be validated.\n   ** Warning ** ProcessScheduleInput: Schedule:Day:Interval=\"SCHEDULE DAY 9\", Blank Schedule Type Limits Name input -- will not be validated.\n   ** Warning ** ProcessScheduleInput: Schedule:Year=\"ECONOMIZER MAX OA FRACTION 100 PCT\", Blank Schedule Type Limits Name input -- will not be validated.\n   ** Warning ** ProcessScheduleInput: Schedule:Year=\"SCHEDULE RULESET 10\", Blank Schedule Type Limits Name input -- will not be validated.\n   ** Warning ** ProcessScheduleInput: Schedule:Year=\"SCHEDULE RULESET 11\", Blank Schedule Type Limits Name input -- will not be validated.\n   ** Warning ** ProcessScheduleInput: Schedule:Year=\"SCHEDULE RULESET 3\", Blank Schedule Type Limits Name input -- will not be validated.\n   ** Warning ** ProcessScheduleInput: Schedule:Year=\"SCHEDULE RULESET 4\", Blank Schedule Type Limits Name input -- will not be validated.\n   ** Warning ** ProcessScheduleInput: Schedule:Year=\"SCHEDULE RULESET 5\", Blank Schedule Type Limits Name input -- will not be validated.\n   ** Warning ** ProcessScheduleInput: Schedule:Year=\"SCHEDULE RULESET 6\", Blank Schedule Type Limits Name input -- will not be validated.\n   ** Warning ** ProcessScheduleInput: Schedule:Year=\"SCHEDULE RULESET 7\", Blank Schedule Type Limits Name input -- will not be validated.\n   ** Warning ** ProcessScheduleInput: Schedule:Year=\"SCHEDULE RULESET 8\", Blank Schedule Type Limits Name input -- will not be validated.\n   ** Warning ** ProcessScheduleInput: Schedule:Year=\"SCHEDULE RULESET 9\", Blank Schedule Type Limits Name input -- will not be validated.\n   ** Warning ** ProcessScheduleInput: Schedule:Constant=\"ALWAYS OFF DISCRETE\", Blank Schedule Type Limits Name input -- will not be validated.\n   ** Warning ** ProcessScheduleInput: Schedule:Constant=\"ALWAYS ON CONTINUOUS\", Blank Schedule Type Limits Name input -- will not be validated.\n   ** Warning ** CheckUsedConstructions: There are 22 nominally unused constructions in input.\n   **   ~~~   ** For explicit details on each unused construction, use Output:Diagnostics,DisplayExtraWarnings;\n   ************* Beginning System Sizing Calculations\n   ************* Beginning Plant Sizing Calculations\n   ** Warning ** GetDXCoils: Coil:Cooling:DX:SingleSpeed=\"COIL COOLING DX SINGLE SPEED 1 28KBTU/HR 14.0SEER\", invalid\n   **   ~~~   ** ...Part Load Fraction Correlation Curve Name = DXCOOL-NECB2011-REF-COOLPLFFPLR has out of range value.\n   **   ~~~   ** ...Curve maximum must be <= 1.0, curve max at PLR = 0.99 is 1.015\n   **   ~~~   ** ...Setting curve maximum to 1.0 and simulation continues.\n   ** Warning ** GetDXCoils: Coil:Cooling:DX:SingleSpeed=\"COIL COOLING DX SINGLE SPEED 3 108KBTU/HR 9.7EER\", invalid\n   **   ~~~   ** ...Part Load Fraction Correlation Curve Name = DXCOOL-NECB2011-REF-COOLPLFFPLR 2 has out of range value.\n   **   ~~~   ** ...Curve maximum must be <= 1.0, curve max at PLR = 0.99 is 1.015\n   **   ~~~   ** ...Setting curve maximum to 1.0 and simulation continues.\n   ** Warning ** GetDXCoils: Coil:Cooling:DX:SingleSpeed=\"COIL COOLING DX SINGLE SPEED 2 301KBTU/HR 8.21EER\", invalid\n   **   ~~~   ** ...Part Load Fraction Correlation Curve Name = DXCOOL-NECB2011-REF-COOLPLFFPLR 1 has out of range value.\n   **   ~~~   ** ...Curve maximum must be <= 1.0, curve max at PLR = 0.99 is 1.015\n   **   ~~~   ** ...Setting curve maximum to 1.0 and simulation continues.\n   ** Warning ** The Standard Ratings is calculated for Coil:Cooling:DX:SingleSpeed = COIL COOLING DX SINGLE SPEED 1 28KBTU/HR 14.0SEER but not at the AHRI test condition due to curve out of bound.\n   **   ~~~   **  Review the Standard Ratings calculations in the Engineering Reference for this coil type. Also, use Output:Diagnostics, DisplayExtraWarnings for further guidance.\n   ** Warning ** The Standard Ratings is calculated for Coil:Cooling:DX:SingleSpeed = COIL COOLING DX SINGLE SPEED 3 108KBTU/HR 9.7EER but not at the AHRI test condition due to curve out of bound.\n   **   ~~~   **  Review the Standard Ratings calculations in the Engineering Reference for this coil type. Also, use Output:Diagnostics, DisplayExtraWarnings for further guidance.\n   ** Warning ** The Standard Ratings is calculated for Coil:Cooling:DX:SingleSpeed = COIL COOLING DX SINGLE SPEED 2 301KBTU/HR 8.21EER but not at the AHRI test condition due to curve out of bound.\n   **   ~~~   **  Review the Standard Ratings calculations in the Engineering Reference for this coil type. Also, use Output:Diagnostics, DisplayExtraWarnings for further guidance.\n   ** Warning ** Check input. Pump nominal power or motor efficiency is set to 0, for pump=SERVICE WATER LOOP PUMP\n   ** Warning ** Output:Meter: invalid Name=\"DISTRICTCOOLING:FACILITY\" - not found.\n   ** Warning ** Output:Meter: invalid Name=\"DISTRICTHEATING:FACILITY\" - not found.\n   ** Warning ** Output:Meter:MeterFileOnly requested for \"Electricity:Facility\" (TimeStep), already on \"Output:Meter\". Will report to both eplusout.eso and eplusout.mtr\n   ************* Testing Individual Branch Integrity\n   ************* All Branches passed integrity testing\n   ************* Testing Individual Supply Air Path Integrity\n   ************* All Supply Air Paths passed integrity testing\n   ************* Testing Individual Return Air Path Integrity\n   ************* All Return Air Paths passed integrity testing\n   ************* No node connection errors were found.\n   ************* Beginning Simulation\n   ** Warning ** CalcDoe2DXCoil: Coil:Cooling:DX:SingleSpeed \"COIL COOLING DX SINGLE SPEED 1 28KBTU/HR 14.0SEER\" - Air-cooled condenser inlet dry-bulb temperature below 0 C. Outdoor dry-bulb temperature = -3.45\n   **   ~~~   **  ... Occurrence info = RUN PERIOD 1, 01/03 06:03 - 06:05\n   **   ~~~   ** ... Operation at low ambient temperatures may require special performance curves.\n   ************* Simulation Error Summary *************\n   ************* There are 9 unused schedules in input.\n   ************* There are 9 unused week schedules in input.\n   ************* There are 18 unused day schedules in input.\n   ************* Use Output:Diagnostics,DisplayUnusedSchedules; to see them.\n   *************\n   ************* ===== Recurring Error Summary =====\n   ************* The following recurring error messages occurred.\n   *************\n   *************  ** Warning ** CalcDoe2DXCoil: Coil:Cooling:DX:SingleSpeed=\"COIL COOLING DX SINGLE SPEED 1 28KBTU/HR 14.0SEER\" - Low condenser dry-bulb temperature error continues...\n   *************  **   ~~~   **   This error occurred 94 total times;\n   *************  **   ~~~   **   during Warmup 0 times;\n   *************  **   ~~~   **   during Sizing 0 times.\n   *************  **   ~~~   **   Max=-0.45 [C]  Min=-15.45 [C]\n   *************\n   *************\n   ************* ===== Final Error Summary =====\n   ************* The following error categories occurred.  Consider correcting or noting.\n   ************* Nominally Unused Constructions\n   ************* ..The nominally unused constructions warning is provided to alert you to potential conditions that can cause\n   ************* ..extra time during simulation. Each construction is calculated by the algorithm indicated in the HeatBalanceAlgorithm\n   ************* ..object. You may remove the constructions indicated (when you use the DisplayExtraWarnings option).\n   *************\n   ************* EnergyPlus Warmup Error Summary. During Warmup: 0 Warning; 0 Severe Errors.\n   ************* EnergyPlus Sizing Error Summary. During Sizing: 31 Warning; 0 Severe Errors.\n   ************* EnergyPlus Completed Successfully-- 136 Warning; 0 Severe Errors; Elapsed Time=00hr 00min 33.50sec\n",
   "file_format_version" : "0.0.1",
   "file_paths" : [ "../weather", "../seeds", "../seed" ],
   "hash" : "7A533EB8",
   "measure_paths" : [ "../measures" ],
   "name" : "LHS Autogenerated 883",
   "osa_id" : "4fef0e0f-5396-4c55-a6e1-2cd6803db3ab",
   "osd_id" : "f3ae6420-7867-4be6-a195-d8c0e96a86ad",
   "run_directory" : "./run",
   "seed_file" : "seed.osm",
   "started_at" : "20170710T192028Z",
   "steps" : [
      {
         "arguments" : {
            "__SKIP__" : false,
            "building_type" : "Warehouse",
            "climate_zone" : "NECB HDD Method",
            "epw_file" : "CAN_BC_Prince.Rupert.718980_CWEC.epw",
            "template" : "NECB 2011"
         },
         "measure_dir_name" : "create_prototype_building",
         "name" : "create_prototype_building",
         "result" : {
            "completed_at" : "20170710T192120Z",
            "measure_class_name" : "CreatePrototypeBuilding",
            "measure_display_name" : "Create Prototype Building",
            "measure_name" : "create_prototype_building",
            "measure_taxonomy" : "Whole Building.Space Types",
            "measure_type" : "ModelMeasure",
            "measure_uid" : "ae90fsd7-a651-467a-bc8d-29d310b0f937",
            "measure_version_id" : "c6ec5c18-5595-459f-a082-09a19c8c869c",
            "measure_version_modified" : "20170519T182315Z",
            "measure_xml_checksum" : "057E8D9D",
            "started_at" : "20170710T192030Z",
            "stderr" : "",
            "stdout" : "[OpenStudio.Measure] <0> OSArgumentVector is deprecated, use OpenStudio::Measure::OSArgumentVector instead.\n[openstudio.EpwFile] <0> Successive data points (1970-Jan-31 to 1971-Feb-01, ending on line 753) are greater than 1 day apart in EPW file '/usr/local/bundle/bundler/gems/openstudio-standards-f448df66933d/openstudio-standards/data/weather/CAN_BC_Prince.Rupert.718980_CWEC.epw'. Data will be treated as typical (TMY)\n[openstudio.setFileExtension] <0> Path p, '/usr/local/bundle/bundler/gems/openstudio-standards-f448df66933d/openstudio-standards/data/weather/CAN_BC_Prince.Rupert.718980_CWEC.ddy', has an unexpected file extension. Was expecting 'idf'.\n[openstudio.model.YearDescription] <1> 'UseWeatherFile' is not yet a supported option for YearDescription\n[openstudio.model.YearDescription] <1> 'UseWeatherFile' is not yet a supported option for YearDescription\n[openstudio.setFileExtension] <0> Path p, '/usr/local/bundle/bundler/gems/openstudio-standards-f448df66933d/openstudio-standards/data/weather/CAN_BC_Prince.Rupert.718980_CWEC.ddy', has an unexpected file extension. Was expecting 'idf'.\n[openstudio.model.YearDescription] <1> 'UseWeatherFile' is not yet a supported option for YearDescription\n[openstudio.model.YearDescription] <1> 'UseWeatherFile' is not yet a supported option for YearDescription\n[openstudio.EpwFile] <0> Successive data points (1970-Jan-31 to 1971-Feb-01, ending on line 753) are greater than 1 day apart in EPW file '/usr/local/bundle/bundler/gems/openstudio-standards-f448df66933d/openstudio-standards/data/weather/CAN_BC_Prince.Rupert.718980_CWEC.epw'. Data will be treated as typical (TMY)\n[openstudio.weather.Model] <0> Could not find ground temperatures; will use generic temperatures, which will skew results.\n[openstudio.setFileExtension] <0> Path p, '/usr/local/bundle/bundler/gems/openstudio-standards-f448df66933d/openstudio-standards/data/weather/CAN_BC_Prince.Rupert.718980_CWEC.ddy', has an unexpected file extension. Was expecting 'idf'.\n[openstudio.model.YearDescription] <1> 'UseWeatherFile' is not yet a supported option for YearDescription\n[openstudio.model.YearDescription] <1> 'UseWeatherFile' is not yet a supported option for YearDescription\n[openstudio.EpwFile] <0> Successive data points (1970-Jan-31 to 1971-Feb-01, ending on line 753) are greater than 1 day apart in EPW file '/usr/local/bundle/bundler/gems/openstudio-standards-f448df66933d/openstudio-standards/data/weather/CAN_BC_Prince.Rupert.718980_CWEC.epw'. Data will be treated as typical (TMY)\n[openstudio.setFileExtension] <0> Path p, '/usr/local/bundle/bundler/gems/openstudio-standards-f448df66933d/openstudio-standards/data/weather/CAN_BC_Prince.Rupert.718980_CWEC.ddy', has an unexpected file extension. Was expecting 'idf'.\n[openstudio.model.YearDescription] <1> 'UseWeatherFile' is not yet a supported option for YearDescription\n[openstudio.model.YearDescription] <1> 'UseWeatherFile' is not yet a supported option for YearDescription\n[openstudio.setFileExtension] <0> Path p, '/usr/local/bundle/bundler/gems/openstudio-standards-f448df66933d/openstudio-standards/data/weather/CAN_BC_Prince.Rupert.718980_CWEC.ddy', has an unexpected file extension. Was expecting 'idf'.\n[openstudio.model.YearDescription] <1> 'UseWeatherFile' is not yet a supported option for YearDescription\n[openstudio.model.YearDescription] <1> 'UseWeatherFile' is not yet a supported option for YearDescription\n[openstudio.EpwFile] <0> Successive data points (1970-Jan-31 to 1971-Feb-01, ending on line 753) are greater than 1 day apart in EPW file '/usr/local/bundle/bundler/gems/openstudio-standards-f448df66933d/openstudio-standards/data/weather/CAN_BC_Prince.Rupert.718980_CWEC.epw'. Data will be treated as typical (TMY)\n[openstudio.setFileExtension] <0> Path p, '/usr/local/bundle/bundler/gems/openstudio-standards-f448df66933d/openstudio-standards/data/weather/CAN_BC_Prince.Rupert.718980_CWEC.ddy', has an unexpected file extension. Was expecting 'idf'.\n[openstudio.model.YearDescription] <1> 'UseWeatherFile' is not yet a supported option for YearDescription\n[openstudio.model.YearDescription] <1> 'UseWeatherFile' is not yet a supported option for YearDescription\n[openstudio.setFileExtension] <0> Path p, '/usr/local/bundle/bundler/gems/openstudio-standards-f448df66933d/openstudio-standards/data/weather/CAN_BC_Prince.Rupert.718980_CWEC.ddy', has an unexpected file extension. Was expecting 'idf'.\n[openstudio.model.YearDescription] <1> 'UseWeatherFile' is not yet a supported option for YearDescription\n[openstudio.model.YearDescription] <1> 'UseWeatherFile' is not yet a supported option for YearDescription\n[utilities.idf.WorkspaceObject] <0> Object of type 'Schedule:Constant' and named 'Always Off Discrete', points to an object named OnOff 1 from field 1, but that object cannot be located.\n[utilities.idf.WorkspaceObject] <0> Object of type 'Schedule:Constant' and named 'Always On Continuous', points to an object named Fractional 1 from field 1, but that object cannot be located.\n[utilities.idf.WorkspaceObject] <0> Object of type 'Schedule:Constant' and named 'Always Off Discrete', points to an object named OnOff 1 from field 1, but that object cannot be located.\n[utilities.idf.WorkspaceObject] <0> Object of type 'Schedule:Constant' and named 'Always On Continuous', points to an object named Fractional 1 from field 1, but that object cannot be located.\n[openstudio.standards.Fan] <0> For Fan Constant Volume 1, there is no greater nominal HP.  Use the efficiency of the largest motor category.\n[openstudio.standards.Fan] <0> For Fan Constant Volume 2, there is no greater nominal HP.  Use the efficiency of the largest motor category.\n[openstudio.standards.Fan] <0> For Fan Constant Volume 3, there is no greater nominal HP.  Use the efficiency of the largest motor category.\n[openstudio.EpwFile] <0> Successive data points (1970-Jan-31 to 1971-Feb-01, ending on line 753) are greater than 1 day apart in EPW file '/usr/local/bundle/bundler/gems/openstudio-standards-f448df66933d/openstudio-standards/data/weather/CAN_BC_Prince.Rupert.718980_CWEC.epw'. Data will be treated as typical (TMY)\n[openstudio.setFileExtension] <0> Path p, '/usr/local/bundle/bundler/gems/openstudio-standards-f448df66933d/openstudio-standards/data/weather/CAN_BC_Prince.Rupert.718980_CWEC.ddy', has an unexpected file extension. Was expecting 'idf'.\n[openstudio.model.YearDescription] <1> 'UseWeatherFile' is not yet a supported option for YearDescription\n[openstudio.model.YearDescription] <1> 'UseWeatherFile' is not yet a supported option for YearDescription\n[openstudio.setFileExtension] <0> Path p, '/usr/local/bundle/bundler/gems/openstudio-standards-f448df66933d/openstudio-standards/data/weather/CAN_BC_Prince.Rupert.718980_CWEC.ddy', has an unexpected file extension. Was expecting 'idf'.\n[openstudio.model.YearDescription] <1> 'UseWeatherFile' is not yet a supported option for YearDescription\n[openstudio.model.YearDescription] <1> 'UseWeatherFile' is not yet a supported option for YearDescription\n[openstudio.EpwFile] <0> Successive data points (1970-Jan-31 to 1971-Feb-01, ending on line 753) are greater than 1 day apart in EPW file '/usr/local/bundle/bundler/gems/openstudio-standards-f448df66933d/openstudio-standards/data/weather/CAN_BC_Prince.Rupert.718980_CWEC.epw'. Data will be treated as typical (TMY)\n[openstudio.setFileExtension] <0> Path p, '/usr/local/bundle/bundler/gems/openstudio-standards-f448df66933d/openstudio-standards/data/weather/CAN_BC_Prince.Rupert.718980_CWEC.ddy', has an unexpected file extension. Was expecting 'idf'.\n[openstudio.model.YearDescription] <1> 'UseWeatherFile' is not yet a supported option for YearDescription\n[openstudio.model.YearDescription] <1> 'UseWeatherFile' is not yet a supported option for YearDescription\n[openstudio.setFileExtension] <0> Path p, '/usr/local/bundle/bundler/gems/openstudio-standards-f448df66933d/openstudio-standards/data/weather/CAN_BC_Prince.Rupert.718980_CWEC.ddy', has an unexpected file extension. Was expecting 'idf'.\n[openstudio.model.YearDescription] <1> 'UseWeatherFile' is not yet a supported option for YearDescription\n[openstudio.model.YearDescription] <1> 'UseWeatherFile' is not yet a supported option for YearDescription\n[openstudio.EpwFile] <0> Successive data points (1970-Jan-31 to 1971-Feb-01, ending on line 753) are greater than 1 day apart in EPW file '/usr/local/bundle/bundler/gems/openstudio-standards-f448df66933d/openstudio-standards/data/weather/CAN_BC_Prince.Rupert.718980_CWEC.epw'. Data will be treated as typical (TMY)\n[openstudio.setFileExtension] <0> Path p, '/usr/local/bundle/bundler/gems/openstudio-standards-f448df66933d/openstudio-standards/data/weather/CAN_BC_Prince.Rupert.718980_CWEC.ddy', has an unexpected file extension. Was expecting 'idf'.\n[openstudio.model.YearDescription] <1> 'UseWeatherFile' is not yet a supported option for YearDescription\n[openstudio.model.YearDescription] <1> 'UseWeatherFile' is not yet a supported option for YearDescription\n[openstudio.setFileExtension] <0> Path p, '/usr/local/bundle/bundler/gems/openstudio-standards-f448df66933d/openstudio-standards/data/weather/CAN_BC_Prince.Rupert.718980_CWEC.ddy', has an unexpected file extension. Was expecting 'idf'.\n[openstudio.model.YearDescription] <1> 'UseWeatherFile' is not yet a supported option for YearDescription\n[openstudio.model.YearDescription] <1> 'UseWeatherFile' is not yet a supported option for YearDescription\n[openstudio.standards.Fan] <0> For Fan Constant Volume 1, there is no greater nominal HP.  Use the efficiency of the largest motor category.\n[openstudio.standards.Fan] <0> For Fan Constant Volume 2, there is no greater nominal HP.  Use the efficiency of the largest motor category.\n[openstudio.standards.Fan] <0> For Fan Constant Volume 3, there is no greater nominal HP.  Use the efficiency of the largest motor category.\n",
            "step_errors" : [],
            "step_files" : [],
            "step_info" : [
               "Started adding geometry",
               "Finished adding geometry",
               "Started adding weather file for climate zone: NECB HDD Method.",
               "Template =",
               "Setting Zone3 Bulk Storage to Space Function.Warehouse - med/blk",
               "Setting Zone2 Fine Storage to Space Function.Warehouse - fine",
               "Setting Zone1 Office to Space Function.Office - enclosed",
               "Started applying space types (loads)",
               "Space Function Office - enclosed had no people, one has been created.",
               "Space Function Office - enclosed set occupancy to 4.65 people/1000 ft^2.",
               "Space Function Office - enclosed had no lights, one has been created.",
               "Space Function Office - enclosed set LPD to 1.105536975 W/ft^2.",
               "Space Function Office - enclosed had no electric equipment, one has been created.",
               "Space Function Office - enclosed set electric EPD to 0.696767001 W/ft^2.",
               "Space Function Office - enclosed had no ventilation specification, one has been created.",
               "Space Function Office - enclosed set ventilation per area to 0.085 cfm/ft^2.",
               "Space Function Office - enclosed had no infiltration objects, one has been created.",
               "Space Function Office - enclosed set infiltration to 0.0 per ft^2 exterior surface area.",
               "Space Function Office - enclosed set occupancy schedule to NECB-A-Occupancy.",
               "Space Function Office - enclosed set occupant activity schedule to NECB-Activity.",
               "Space Function Office - enclosed set lighting schedule to NECB-A-Lighting.",
               "Space Function Office - enclosed set electric equipment schedule to NECB-A-Electric-Equipment.",
               "Space Function Office - enclosed set infiltration schedule to Always On.",
               "Space Function Office - enclosed set heating setpoint schedule to NECB-A-Thermostat Setpoint-Heating.",
               "Space Function Office - enclosed set cooling setpoint schedule to NECB-A-Thermostat Setpoint-Cooling.",
               "Space Function Warehouse - fine had no people, one has been created.",
               "Space Function Warehouse - fine set occupancy to 1.86 people/1000 ft^2.",
               "Space Function Warehouse - fine had no lights, one has been created.",
               "Space Function Warehouse - fine set LPD to 0.947603122 W/ft^2.",
               "Space Function Warehouse - fine had no electric equipment, one has been created.",
               "Space Function Warehouse - fine set electric EPD to 0.092902267 W/ft^2.",
               "Space Function Warehouse - fine had no ventilation specification, one has been created.",
               "Space Function Warehouse - fine set ventilation per area to 0.06 cfm/ft^2.",
               "Space Function Warehouse - fine had no infiltration objects, one has been created.",
               "Space Function Warehouse - fine set infiltration to 0.0 per ft^2 exterior surface area.",
               "Space Function Warehouse - fine set occupancy schedule to NECB-A-Occupancy.",
               "Space Function Warehouse - fine set occupant activity schedule to NECB-Activity.",
               "Space Function Warehouse - fine set lighting schedule to NECB-A-Lighting.",
               "Space Function Warehouse - fine set electric equipment schedule to NECB-A-Electric-Equipment.",
               "Space Function Warehouse - fine set infiltration schedule to Always On.",
               "Space Function Warehouse - fine set heating setpoint schedule to NECB-A-Thermostat Setpoint-Heating.",
               "Space Function Warehouse - fine set cooling setpoint schedule to NECB-A-Thermostat Setpoint-Cooling.",
               "Space Function Warehouse - med/blk had no people, one has been created.",
               "Space Function Warehouse - med/blk set occupancy to 0.93 people/1000 ft^2.",
               "Space Function Warehouse - med/blk had no lights, one has been created.",
               "Space Function Warehouse - med/blk set LPD to 0.594574508 W/ft^2.",
               "Space Function Warehouse - med/blk had no electric equipment, one has been created.",
               "Space Function Warehouse - med/blk set electric EPD to 0.092902267 W/ft^2.",
               "Space Function Warehouse - med/blk had no ventilation specification, one has been created.",
               "Space Function Warehouse - med/blk set ventilation per area to 0.06 cfm/ft^2.",
               "Space Function Warehouse - med/blk had no infiltration objects, one has been created.",
               "Space Function Warehouse - med/blk set infiltration to 0.0 per ft^2 exterior surface area.",
               "Space Function Warehouse - med/blk set occupancy schedule to NECB-A-Occupancy.",
               "Space Function Warehouse - med/blk set occupant activity schedule to NECB-Activity.",
               "Space Function Warehouse - med/blk set lighting schedule to NECB-A-Lighting.",
               "Space Function Warehouse - med/blk set electric equipment schedule to NECB-A-Electric-Equipment.",
               "Space Function Warehouse - med/blk set infiltration schedule to Always On.",
               "Space Function Warehouse - med/blk set heating setpoint schedule to NECB-A-Thermostat Setpoint-Heating.",
               "Space Function Warehouse - med/blk set cooling setpoint schedule to NECB-A-Thermostat Setpoint-Cooling.",
               "Finished applying space types (loads)",
               "Started applying constructions",
               "Adding construction set: NECB 2011-NECB HDD Method-Warehouse--is_residentialNo",
               "Adding construction Typical Insulated Exterior Mass Floor R-15.63.",
               "Adding construction Typical Insulated Exterior Mass Wall R-12.5.",
               "Adding construction Typical Insulated Metal Building Roof R-20.41.",
               "Adding construction Typical Interior Floor.",
               "Adding construction Typical Interior Wall.",
               "Adding construction Typical Interior Ceiling.",
               "Adding construction Typical Insulated Carpeted 6in Slab Floor.",
               "Adding construction U 0.55 SHGC 0.31 Dbl Ref-D Tint 6mm/6mm Air.",
               "Adding construction Typical Insulated Metal Door R-1.43.",
               "Adding construction U 0.35 SHGC 0.35 Dbl LoE (e2-.1) Tint 6mm/13mm Air.",
               "Adding construction Typical Overhead Door R-2.0.",
               "Adding construction U 0.48 SHGC 0.40 Dbl Ref-D Clr 6mm/13mm.",
               "Adding construction Typical Interior Window.",
               "Adding construction Typical Interior Door.",
               "Adding construction Typical Interior Partition.",
               "Finished applying constructions",
               "WWR NonRes = 0%; window = 0 ft2, wall = 0 ft2.",
               "WWR Res = 0%; window = 0 ft2, wall = 0 ft2.",
               "WWR Semiheated = 0%; window = 0 ft2, wall = 0 ft2.",
               "The skylight to roof ratios (SRRs) are: NonRes: 2%, Res: 0%.",
               "Started creating thermal zones",
               "Finished creating thermal zones",
               "Running simulation /mnt/openstudio/analysis_4fef0e0f-5396-4c55-a6e1-2cd6803db3ab/data_point_f3ae6420-7867-4be6-a195-d8c0e96a86ad/run/000_create_prototype_building/output/Warehouse-NECB 2011-NECB HDD Method-CAN_BC_Prince.Rupert.718980_CWEC.epw/SR0.",
               "Finished run.",
               "Started Adding HVAC",
               "Finished adding HVAC",
               "Started Adding Service Water Heating",
               "Adding service water loop.",
               "Adding water heater.",
               "Template =",
               "Finished adding Service Water Heating",
               "Set sizing factors to 1.3 for heating and 1.3 for cooling.",
               "Running simulation /mnt/openstudio/analysis_4fef0e0f-5396-4c55-a6e1-2cd6803db3ab/data_point_f3ae6420-7867-4be6-a195-d8c0e96a86ad/run/000_create_prototype_building/output/Warehouse-NECB 2011-NECB HDD Method-CAN_BC_Prince.Rupert.718980_CWEC.epw/SR1.",
               "Finished run.",
               "Started applying multizone vav OA sizing.",
               "Finished applying multizone vav OA sizing.",
               "Started applying prototype HVAC assumptions.",
               "For Fan Constant Volume 1: allowed_hp = 1.01HP; motor eff = 61.5%; total fan eff = 40% based on 1043 cfm.",
               "For Fan Constant Volume 2: allowed_hp = 7.71HP; motor eff = 61.5%; total fan eff = 40% based on 11276 cfm.",
               "For Fan Constant Volume 3: allowed_hp = 2.76HP; motor eff = 61.5%; total fan eff = 40% based on 4037 cfm.",
               "Sp-Zone1 Office Sys-3 Flr-1 Sch-A HPlcmt-south ZN NECB System 3 PSZ does not require an economizer because the total cooling capacity of 27802 Btu/hr is less than the minimum capacity of 68243 Btu/hr.",
               "Sp-Zone2 Fine Storage Sys-4 Flr-1 Sch-A HPlcmt-south ZN NECB System 4 PSZ requires an economizer because the total cooling capacity of 107622 Btu/hr exceeds the minimum capacity of 68243 Btu/hr.",
               "Sp-Zone3 Bulk Storage Sys-4 Flr-1 Sch-A HPlcmt-east ZN NECB System 4 PSZ requires an economizer because the total cooling capacity of 300588 Btu/hr exceeds the minimum capacity of 68243 Btu/hr.",
               "Finished applying prototype HVAC assumptions.",
               "Started applying HVAC efficiency standards.",
               "For Sp-Zone1 Office Sys-3 Flr-1 Sch-A HPlcmt-south ZN NECB System 3 PSZ, ERV not required based on 0% OA flow, design supply air flow of 1043cfm, and climate zone NECB HDD Method.",
               "For Sp-Zone1 Office Sys-3 Flr-1 Sch-A HPlcmt-south ZN NECB System 3 PSZ, ERV not required based on exhaust heat content.",
               "For NECB 2011 NECB HDD Method:  Sp-Zone1 Office Sys-3 Flr-1 Sch-A HPlcmt-south ZN NECB System 3 PSZ: DCV is not required for any system.",
               "For Sp-Zone1 Office Sys-3 Flr-1 Sch-A HPlcmt-south ZN NECB System 3 PSZ: Annual occupied hours = 2860 hr/yr, assuming a 0.15 occupancy threshold.  This schedule will be used as the HVAC operation schedule.",
               "For Sp-Zone1 Office Sys-3 Flr-1 Sch-A HPlcmt-south ZN NECB System 3 PSZ: Setting motorized OA damper schedule to Sp-Zone1 Office Sys-3 Flr-1 Sch-A HPlcmt-south ZN NECB System 3 PSZ Occ Sch.",
               "For Sp-Zone2 Fine Storage Sys-4 Flr-1 Sch-A HPlcmt-south ZN NECB System 4 PSZ, ERV not required based on 0% OA flow, design supply air flow of 4037cfm, and climate zone NECB HDD Method.",
               "For Sp-Zone2 Fine Storage Sys-4 Flr-1 Sch-A HPlcmt-south ZN NECB System 4 PSZ, ERV not required based on exhaust heat content.",
               "For NECB 2011 NECB HDD Method:  Sp-Zone2 Fine Storage Sys-4 Flr-1 Sch-A HPlcmt-south ZN NECB System 4 PSZ: DCV is not required for any system.",
               "For Sp-Zone2 Fine Storage Sys-4 Flr-1 Sch-A HPlcmt-south ZN NECB System 4 PSZ: Annual occupied hours = 2860 hr/yr, assuming a 0.15 occupancy threshold.  This schedule will be used as the HVAC operation schedule.",
               "For Sp-Zone2 Fine Storage Sys-4 Flr-1 Sch-A HPlcmt-south ZN NECB System 4 PSZ: Because the system has an economizer, it requires a motorized OA damper.",
               "For Sp-Zone2 Fine Storage Sys-4 Flr-1 Sch-A HPlcmt-south ZN NECB System 4 PSZ: Setting motorized OA damper schedule to Sp-Zone2 Fine Storage Sys-4 Flr-1 Sch-A HPlcmt-south ZN NECB System 4 PSZ Occ Sch.",
               "For Sp-Zone3 Bulk Storage Sys-4 Flr-1 Sch-A HPlcmt-east ZN NECB System 4 PSZ, ERV not required based on 0% OA flow, design supply air flow of 11276cfm, and climate zone NECB HDD Method.",
               "For Sp-Zone3 Bulk Storage Sys-4 Flr-1 Sch-A HPlcmt-east ZN NECB System 4 PSZ, ERV not required based on exhaust heat content.",
               "For NECB 2011 NECB HDD Method:  Sp-Zone3 Bulk Storage Sys-4 Flr-1 Sch-A HPlcmt-east ZN NECB System 4 PSZ: DCV is not required for any system.",
               "For Sp-Zone3 Bulk Storage Sys-4 Flr-1 Sch-A HPlcmt-east ZN NECB System 4 PSZ: Annual occupied hours = 2860 hr/yr, assuming a 0.15 occupancy threshold.  This schedule will be used as the HVAC operation schedule.",
               "For Sp-Zone3 Bulk Storage Sys-4 Flr-1 Sch-A HPlcmt-east ZN NECB System 4 PSZ: Because the system has an economizer, it requires a motorized OA damper.",
               "For Sp-Zone3 Bulk Storage Sys-4 Flr-1 Sch-A HPlcmt-east ZN NECB System 4 PSZ: Setting motorized OA damper schedule to Sp-Zone3 Bulk Storage Sys-4 Flr-1 Sch-A HPlcmt-east ZN NECB System 4 PSZ Occ Sch.",
               "For Fan Constant Volume 1: motor nameplate = 0.6496636589683611HP, motor eff = 61.5%.",
               "For Fan Constant Volume 2: motor nameplate = 7HP, motor eff = 61.5%.",
               "For Fan Constant Volume 3: motor nameplate = 3HP, motor eff = 61.5%.",
               "For Service Water Loop Pump: brake hp = 0.0HP, motor nameplate = 0.1HP, motor eff = 70.0%.",
               "For Pump Variable Speed 1: brake hp = 0.89HP, motor nameplate = 1.0HP, motor eff = 85.5%.",
               "For NECB 2011: Coil Cooling DX Single Speed 1: AirCooled All Other Single Package Capacity = 28kBtu/hr; SEER = 14.0",
               "For NECB 2011: Coil Cooling DX Single Speed 2: AirCooled All Other Single Package Capacity = 301kBtu/hr; EER = 8.21",
               "For NECB 2011: Coil Cooling DX Single Speed 3: AirCooled All Other Single Package Capacity = 108kBtu/hr; EER = 9.7",
               "For NECB 2011: Primary Boiler: Gas Hot Water Capacity = 331kBtu/hr; Thermal Efficiency = 0.83",
               "For NECB 2011: Secondary Boiler: Gas Hot Water Capacity = 331kBtu/hr; Thermal Efficiency = 0.83",
               "For NECB 2011: 40.0gal NaturalGas Water Heater - 40kBtu/hr 0.82 Therm Eff; thermal efficiency = 0.82, skin-loss UA = 6Btu/hr",
               "Finished applying HVAC efficiency standards.",
               "Started adding daylighting controls.",
               "Finished adding daylighting controls.",
               "Total Time = 50sec."
            ],
            "step_result" : "Success",
            "step_values" : [
               {
                  "name" : "building_type",
                  "value" : "Warehouse"
               },
               {
                  "name" : "template",
                  "value" : "NECB 2011"
               },
               {
                  "name" : "climate_zone",
                  "value" : "NECB HDD Method"
               },
               {
                  "name" : "epw_file",
                  "value" : "CAN_BC_Prince.Rupert.718980_CWEC.epw"
               }
            ],
            "step_warnings" : [
               "[openstudio.EpwFile] Successive data points (1970-Jan-31 to 1971-Feb-01, ending on line 753) are greater than 1 day apart in EPW file '/usr/local/bundle/bundler/gems/openstudio-standards-f448df66933d/openstudio-standards/data/weather/CAN_BC_Prince.Rupert.718980_CWEC.epw'. Data will be treated as typical (TMY)",
               "[openstudio.EpwFile] Successive data points (1970-Jan-31 to 1971-Feb-01, ending on line 753) are greater than 1 day apart in EPW file '/usr/local/bundle/bundler/gems/openstudio-standards-f448df66933d/openstudio-standards/data/weather/CAN_BC_Prince.Rupert.718980_CWEC.epw'. Data will be treated as typical (TMY)",
               "[openstudio.weather.Model] Could not find ground temperatures; will use generic temperatures, which will skew results.",
               "[openstudio.EpwFile] Successive data points (1970-Jan-31 to 1971-Feb-01, ending on line 753) are greater than 1 day apart in EPW file '/usr/local/bundle/bundler/gems/openstudio-standards-f448df66933d/openstudio-standards/data/weather/CAN_BC_Prince.Rupert.718980_CWEC.epw'. Data will be treated as typical (TMY)",
               "[openstudio.EpwFile] Successive data points (1970-Jan-31 to 1971-Feb-01, ending on line 753) are greater than 1 day apart in EPW file '/usr/local/bundle/bundler/gems/openstudio-standards-f448df66933d/openstudio-standards/data/weather/CAN_BC_Prince.Rupert.718980_CWEC.epw'. Data will be treated as typical (TMY)",
               "[openstudio.standards.Fan] For Fan Constant Volume 1, there is no greater nominal HP.  Use the efficiency of the largest motor category.",
               "[openstudio.standards.Fan] For Fan Constant Volume 2, there is no greater nominal HP.  Use the efficiency of the largest motor category.",
               "[openstudio.standards.Fan] For Fan Constant Volume 3, there is no greater nominal HP.  Use the efficiency of the largest motor category.",
               "[openstudio.EpwFile] Successive data points (1970-Jan-31 to 1971-Feb-01, ending on line 753) are greater than 1 day apart in EPW file '/usr/local/bundle/bundler/gems/openstudio-standards-f448df66933d/openstudio-standards/data/weather/CAN_BC_Prince.Rupert.718980_CWEC.epw'. Data will be treated as typical (TMY)",
               "[openstudio.EpwFile] Successive data points (1970-Jan-31 to 1971-Feb-01, ending on line 753) are greater than 1 day apart in EPW file '/usr/local/bundle/bundler/gems/openstudio-standards-f448df66933d/openstudio-standards/data/weather/CAN_BC_Prince.Rupert.718980_CWEC.epw'. Data will be treated as typical (TMY)",
               "[openstudio.EpwFile] Successive data points (1970-Jan-31 to 1971-Feb-01, ending on line 753) are greater than 1 day apart in EPW file '/usr/local/bundle/bundler/gems/openstudio-standards-f448df66933d/openstudio-standards/data/weather/CAN_BC_Prince.Rupert.718980_CWEC.epw'. Data will be treated as typical (TMY)",
               "[openstudio.standards.Fan] For Fan Constant Volume 1, there is no greater nominal HP.  Use the efficiency of the largest motor category.",
               "[openstudio.standards.Fan] For Fan Constant Volume 2, there is no greater nominal HP.  Use the efficiency of the largest motor category.",
               "[openstudio.standards.Fan] For Fan Constant Volume 3, there is no greater nominal HP.  Use the efficiency of the largest motor category."
            ]
         }
      },
      {
         "arguments" : {
            "__SKIP__" : false
         },
         "measure_dir_name" : "view_model",
         "name" : "view_model",
         "result" : {
            "completed_at" : "20170710T192121Z",
            "measure_class_name" : "ViewModel",
            "measure_display_name" : "ViewModel",
            "measure_name" : "view_model",
            "measure_taxonomy" : "Reporting.QAQC",
            "measure_type" : "ModelMeasure",
            "measure_uid" : "f4669f10-fda5-489d-8e1c-7ca3c2d40378",
            "measure_version_id" : "f4975c5f-7c25-42a2-927b-02d99b4427ef",
            "measure_version_modified" : "20170526T150340Z",
            "measure_xml_checksum" : "1E1F8B97",
            "started_at" : "20170710T192120Z",
            "stderr" : "",
            "stdout" : "[OpenStudio.Measure] <0> OSArgumentVector is deprecated, use OpenStudio::Measure::OSArgumentVector instead.\n",
            "step_errors" : [],
            "step_files" : [
               "/mnt/openstudio/analysis_4fef0e0f-5396-4c55-a6e1-2cd6803db3ab/data_point_f3ae6420-7867-4be6-a195-d8c0e96a86ad/run/001_view_model/report.html",
               "/mnt/openstudio/analysis_4fef0e0f-5396-4c55-a6e1-2cd6803db3ab/data_point_f3ae6420-7867-4be6-a195-d8c0e96a86ad/run/001_view_model/report.json"
            ],
            "step_final_condition" : "Report written to <a href='file:////mnt/openstudio/analysis_4fef0e0f-5396-4c55-a6e1-2cd6803db3ab/data_point_f3ae6420-7867-4be6-a195-d8c0e96a86ad/run/001_view_model/report.html'>report.html</a>.",
            "step_info" : [ "No changes made to the model." ],
            "step_result" : "NA",
            "step_values" : [
               {
                  "name" : "view_model_html_zip",
[...]
2tngxGglP5Fri1k8nIomupRgNSu5MbsY9bzpVB4q0lPXWVskNq6vnpWm8OEJmr294kzrwxdW/KUnn6twVhdf1wuEkilv3h50YalxGYdq9lf54kiqNiygY6WssRue305Mfuy+67yYyvo6S1EvFmUynkZ8J/yy91A/Hz7aKxuv5djKM/Wn6L/I7z7dH/s2Xm8l7aLFMS/ij49ZQufNJ9vyeH8r43O23RN4px62Rn0wDb37kh+o8nO5FEA0//tCi+TLRxSOIdD7N7lf9sn3l3XiLTwvvVFd+SM/NWByvzuIJ5e3Zzbjd+u4xY0fsqKNtsn9KI+nBgS7v/zol6rNSftQ5qs4gPwNsqKYfdeLTotrf2nlTBUoum9KATWmHTWmXTWmPTWmfTemATemQTWnt8E1LKT4vd/jc3OHzc4fP0R0+T3f4XN3h83WHz9kdPm93+bzdZZzT+bzd5fN219DbHxde0syAsRwZCBX0lZlQQU+ZCRX0k5lQwZxgJlQwI5gJFcwHZkIFs4GZUMFcYCZUlPgMldh8uyjtGSqxeXdR0jNUYvPvopRnqMTm4UUJz1CJzceL0p2hEt/8zebjRbnOUMnExx8VvtBMc6o2hoFSQTcZKhV0k6FSQTcZKhVMBYZKBVOBoVLBVGCoVDAVGCoVTAWGSkX5zlSKz8uLMp6pFJ+fF+U8Uyk+Ty/KeqZSfL5elPdMpfi8vSjzmUoxzul83l6U/EylSr0dh9HjMPqlkMZtOIz+0YXD6HWwcBg9DqOvcuEwenXhMHocRp9fOIy++Js4jL5cQF04jH4zzmwEDnCAAxzgAAc4wAEOcIADnI3H+caOcgQNaEADGtCABjSgAQ1oQAOazaH5ts5sBA5wgAMc4AAHOMABDnCAA5xvCucrFmd7MUz9Gz+dv5Y3MhDt/6A827dYnm05SJtRic3ZgEpsTmOV2Pq9/i5LITYroQGX0A6X0C6X0B6X0D6X0AGX0CGX0Np7+XZKbL7tsDm3w+bdDpt7O2z+7bA5uMPm4Q6biztsPu6y+bjLN3+z+bjL5uOumY/rV1xb16pecM1Gh+6l6uXWbHToWaB6sTUbHXoGqF5qzUaHjn6LQmtWQlweXZDeLKqsWQlxOXVBbrMosWYlxOXXBYnNor6a1czI5dkFWc2iuJqVEJdnF6S06pXV1nUsCqtZCdFdZFFWzUqIDn6LompWQnTwW5RUsxKig9+moJqdEptvF2Q2m2pqdkps7l2Q3GxKqdkpsXl4QX6zqaNmN1ey+XhBirMpomanxObjBVkOFdRQQQ0V1B4RooKaulBBDRXUUEGt4EIFNVRQM3oqVFBbs2/wfVRQe3ihgtr9VcOGrW+s0ABwgAMc4AAHOMABDnCAAxzgbDzON1Z/ADSgAQ1oQAMa0IAGNKABDWg2h+ZvU/cAOMABDnCAAxzgAAc4wAEOcKrb+woV1FAw7ZsqmHY2nMjRLOtl9TpUIlPh9DejbJq7AWXT3MbKpu3lL4VWLXHDJTTgEtrhEtrlEtrjEtrnEjrgEjrkElp7+95Oic23HTbndti822Fzb4fNvx02B3fYPNxhc3GHzcddNh93+eZvNh932XzcNfNx/bJp61rVy6bZ6NC9VL1smo0OPQtUL5tmo0PPANXLptno0NFvUTbNSojLowvSm0XZNCshLqcuyG0WZdOshLj8uiCxWZRNs5oZuTy7IKtZlE2zEuLy7IKUVr1s2rqORdk0KyG6iyzKplkJ0cFvUTbNSogOfouyaVZCdPDblE2zU2Lz7YLMZlM2zU6Jzb0LkptN2TQ7JTYPL8hvNmXT7OZKNh8vSHE2ZdPslNh8vCDLoWwayqahbNojQpRNUxfKpqFsGsqmFVwom4ayaUZPhbJpa/YNvo+yaQ8vlE27v2rYpfWNVRcADnCAAxzgAAc4wAEOcIADnI3H+caKDoAGNKABDWhAAxrQgAY0oAHN5tD8bYodAAc4wAEOcIADHOAABzjAAU51eyibtrxQNu2+bJqzGWXTBhtQNm3QWNm0fs9lqZpmozNg0tlh0tll0tlj0tln0jlg0jlk0ll76d5KiMujHS6Xdrh82uFyaofLqx0ut3a4/NrhcmyHy7NdLs922eZqLs92uTzbNfJs/fJoa1LVq6NZyJA9VL02moUMGffVK6NZyJAxX70umoUMGe8WVdFsdJj8mE5jFiXRbHSYXJnOYRb10Gx0mLyZTmAWxdBs5kEmf6azl0UlNBsdJn+mU1f1MmhrMhZV0Gx0yO6xqIFmo0OGu0UFNBsdMtwt6p/Z6JDhblP9zEqIy6PpDGZT+sxKiMup6SRmU/fMSojLr+k8ZlP0zGpm5PJsOpXZVDyzEuLybDqbodwZyp2h3NkjQpQ7UxfKnaHcGcqdFVwod4ZyZ0ZPhXJna/YNvo9yZw8vlDu7v2rYXfWNVQUADnCAAxzgAAc4wAEOcIADnI3H+caKBYAGNKABDWhAAxrQgAY0oAHN5tD8bYoUAAc4wAEOcIADHOAABzjAAU51eyh3trxQ7mxV7mywGdXOdjag2tlOg9XO+rtM5c4shAZcQjtcQrtcQntcQvtcQgdcQodcQp+9bW+jxObbDptzO2ze7bC5t8Pm3w6bgztsHu6wubjD5uMum4+7fPM3m4+7bD7umvm4SRW0h1o2ZdCq69C9ZFMIrboOPQvYlEKrrkPPADbF0Krr0NFvVQ7NQojLowvSm1VFNAshLqcuyG1WRdEshLj8uiCxWdVFs5gZuTy7IKtZlUazEOLy7IKUZlMd7aGOVXk0CyG6i6wKpFkI0cFvVSLNQogOfqsiaRZCdPDblUmzUWLz7YLMZlcpzUaJzb0LkptdsTQbJTYPL8hvdvXSbOZKNh8vSHF2JdNslNh8vCDLoWoaqqahatojQlRNUxeqpqFqGqqmFVyomoaqaUZPhappa/YNvo+qaQ8vVE27v2rYpPWNFRcADnCAAxzgAAc4wAEOcIADnI3H+cZqDoAGNKABDWhAAxrQgAY0oAHN5tD8bWodAAc4wAEOcIADHOAABzjAAU51e6iatrxQNW1VNW1nM6qm7W5A1bTdxqqm7eXvhFatcMMlNOAS2uES2uUS2uMS2ucSOuASOuQSWnv53k6JzbcdNud22LzbYXNvh82/HTYHd9g83GFzcYfNx102H3f55m82H3fZfNw183H9qmnrWtWrptno0L1UvWqajQ49C1SvmmajQ88A1aum2ejQ0W9RNc1KiMujC9KbRdU0KyEupy7IbRZV06yEuPy6ILFZVE2zmhm5PLsgq1lUTbMS4vLsgpRWvWrauo5F1TQrIbqLLKqmWQnRwW9RNc1KiA5+i6ppVkJ08NtUTbNTYvPtgsxmUzXNTonNvQuSm03VNDslNg8vyG82VdPs5ko2Hy9IcTZV0+yU2Hy8IMuhahqqpqFq2iNCVE1TF6qmoWoaqqYVXKiahqppRk+Fqmlr9g2+j6ppDy9UTbu/atik9Y0VFwAOcIADHOAABzjAAQ5wgAOcjcf5xmoOgAY0oAENaEADGtCABjSgAc3m0Pxtah0ABzjAAQ5wgAMc4AAHOMABTnV7qJq2vFA1bVU1bXczqqbtbUDVtL3Gqqb1ey5L0TQbnQGTzg6Tzi6Tzh6Tzj6TzgGTziGTzto791ZCXB7tcLm0w+XTDpdTO1xe7XC5tcPl1w6XYztcnu1yebbLNldzebbL5dmukWfrV0dbk6peHM1Chuyh6qXRLGTIuK9eGM1Choz56mXRLGTIeLcoimajw+THdBqzqIhmo8PkynQOsyiHZqPD5M10ArOohWYzDzL5M529LAqh2egw+TOduqpXQVuTsSiCZqNDdo9FCTQbHTLcLQqg2eiQ4W5R/sxGhwx3m+JnVkJcHk1nMJvKZ1ZCXE5NJzGbsmdWQlx+Tecxm5pnVjMjl2fTqcym4JmVEJdn09kM1c5Q7QzVzh4RotqZulDtDNXOUO2s4EK1M1Q7M3oqVDtbs2/wfVQ7e3ih2tn9VcPmqm+sKABwgAMc4AAHOMABDnCAAxzgbDzON1YrADSgAQ1oQAMa0IAGNKABDWg2h+ZvU6MAOMABDnCAAxzgAAc4wAEOcKrbQ7Wz5YVqZ6tqZ3ubUe1sfwOqne03WO2sv8tU7sxCaMAltMMltMsltMcltM8ldMAldMgl9Nnb9jZKbL7tsDm3w+bdDpt7O2z+7bA5uMPm4Q6biztsPu6y+bjLN3+z+bjL5uOumY+bVEF7qGVTBq26Dt1LNoXQquvQs4BNKbTqOvQMYFMMrboOHf1W5dAshLg8uiC9WVVEsxDicuqC3GZVFM1CiMuvCxKbVV00i5mRy7MLsppVaTQLIS7PLkhpNtXRHupYlUezEKK7yKpAmoUQHfxWJdIshOjgtyqSZiFEB79dmTQbJTbfLshsdpXSbJTY3LsgudkVS7NRYvPwgvxmVy/NZq5k8/GCFGdXMs1Gic3HC7Icqqahahqqpj0iRNU0daFqGqqmoWpawYWqaaiaZvRUqJq2Zt/g+6ia9vBC1bT7q4ZNWt9YcQHgAAc4wAEOcIADHOAABzjA2Xicb6zmAGhAAxrQgAY0oAENaEADGtBsDs3fptYBcIADHOAABzjAAQ5wgAMc4FS3h6ppywtV01ZV0/Y3o2rawQZUTTtorGraXv5OaNUKN1xCAy6hHS6hXS6hPS6hfS6hAy6hQy6htZfv7ZTYfNthc26HzbsdNvd22PzbYXNwh83DHTYXd9h83GXzcZdv/mbzcZfNx10zH9evmrauVb1qmo0O3UvVq6bZ6NCzQPWqaTY69AxQvWqajQ4d/RZV06yEuDy6IL1ZVE2zEuJy6oLcZlE1zUqIy68LEptF1TSrmZHLswuymkXVNCshLs8uSGnVq6at61hUTbMSorvIomqalRAd/BZV06yE6OC3qJpmJUQHv03VNDslNt8uyGw2VdPslNjcuyC52VRNs1Ni8/CC/GZTNc1urmTz8YIUZ1M1zU6JzccLshyqpqFqGqqmPSJE1TR1oWoaqqahalrBhappqJpm9FSomrZm3+D7qJr28ELVtPurhk1a31hxAeAABzjAAQ5wgAMc4AAHOMDZeJxvrOYAaEADGtCABjSgAQ1oQAMa0GwOzd+m1gFwgAMc4AAHOMABDnCAAxzgVLeHqmnLC1XTVlXTDjajatrhBlRNO2ysalq/57IUTbPRGTDp7DDp7DLp7DHp7DPpHDDpHDLprL1zbyXE5dEOl0s7XD7tcDm1w+XVDpdbO1x+7XA5tsPl2S6XZ7tsczWXZ7tcnu0aebZ+dbQ1qerF0SxkyB6qXhrNQoaM++qF0SxkyJivXhbNQoaMd4uiaDY6TH5MpzGLimg2OkyuTOcwi3JoNjpM3kwnMItaaDbzIJM/09nLohCajQ6TP9Opq3oVtDUZiyJoNjpk91iUQLPRIcPdogCajQ4Z7hblz2x0yHC3KX5mJcTl0XQGs6l8ZiXE5dR0ErMpe2YlxOXXdB6zqXlmNTNyeTadymwKnlkJcXk2nc1Q7QzVzlDt7BEhqp2pC9XOUO0M1c4KLlQ7Q7Uzo6dCtbM1+wbfR7Wzhxeqnd1fNWyu+saKAgAHOMABDnCAAxzgAAc4wAHOxuN8Y7UCQAMa0IAGNKABDWhAAxrQgGZzaP42NQqAAxzgAAc4wAEOcIADHOAAp7o9VDtbXqh2tqp2drgR1c4G/W+/2lnG2FS1M2en3+s/uJwdluJnjLKDemR36pHdrUd2rx7Z/XpkD+qRPaxHdu1df07dmuLMqSnQnJoizakp1JyaYs2pKdicmqLNqSncnJriza0p3ty68lpN8ebWFG+uTbzpV5UrUq5eZI5PVbd3q5eg41PVncmqF6jjU9WdxaqXr+NT1Z3BLIrbMcrWE13aywWLSniMsvUEmPZawaJsHqNsPTGmvVCwqLHHmBXqiTLtVYJFQT5G2XqiTHuJUL16X5GqRTE/RlndrrUo9ccoqzuBWRQCZJTVncAsygQyyupOYDZFBDl1a4oz7ZWCTcVBTt2aQk17sWBTnpBTt6Zo014v2NQy5MwTNcWb9pLBpvAhp25N8aa9akCVRFRJRJXER4SokqguVElElURUSSy4UCURVRKNngpVEtfsG3wfVRIfXqiSeH/VsCnzGysmAhzgAAc4wAEOcIADHOAABzgbj/ON1RgBDWhAAxrQgAY0oAENaEADms2h+dvUNgEOcIADHOAABzjAAQ5wgAOc6va+QpXEd/J6KmMvncVStF9toWjit1U0UcY3/lCK/3jK815H0VSoAVP7nHf6rzajgKKzAQUUneYKKKr/r1qpiUlnwKSzw6Szy6Szx6Szz6RzwKRzyKSzXmDARojLox0ul3a4fNrhcmqHy6sdLrd2uPza4XJsh8uzXS7Pdtnmai7Pdrk82zXybIPCfg+lLCr5VZche8iiVl91GTLuLarxVZchY96i3l51GTLebSrqWegw+TGdxmyK5FnoMLkyncNs6t5Z6DB5M53AbErZWcyDTP5MZy+b6nQWOkz+TKcui4JzD2VsKsxZ6JDdY1NDzkKHDHebKnEWOmS429SBs9Ahw92q0puNEJdH0xnMqnibjRCXU9NJzKoem40Ql1/TecyqxJrNzMjl2XQqs6qaZiPE5dl0Nnsk9HvsR7GfzoUjuqJ9Ngu3VEmqve7/8cJu3+nm//9SDrvqF5hfTnP9tR/0XrzY2Tk8ZDDh1m9iUL+JnfpN7NZvYq9+E/v1mzio38Rh/SbWMntdNhqIb6eBAHcaiHCngRB3Gohxp4EgdxqIcqeBMHcaiHO3gTh3m8jjDcS520Ccu9Xi3M1teCllo6+3rBoMXPdgj8EEPRpsJujBYDNBjwWbCXrKZTNBz7hsJugJl80EPd+ymaCnWzYTBcsqPhsNxHfBsorPRgMRXrCs4rPRQIwXLKv4bDQQ5QXLKj4bDcR5wbKKz0YTebyBOC9YVvHZqBbnA2XjVewTNtxDvWWV4+zvDwYMJujRYDNBDwabCXos2EzQUy6bCXrGZTNBT7hsJuj5ls0EvTeKzUTBhkA+G/SOKj4b9GYrPhv0Piw+G/QWLT4b9L5EPhv0lkU+G/RuRj4b9EZHPhsNxHnBsorPRhN5vIFEXrCs4rNRLZXvKBvvJjPKxoHesuowu3Z/ZDBBjwabCXow2EzQY8Fmgl5WsZmgl1VsJuhlFZsJelnFZoKebtlMFCyr+GzQyyo+G/Syis8Gvazis0Evq/hs0MsqPhv0sorPBr2s4rNBL6v4bDQQ5wXLKj4bTeTxBhJ5wbKKz0a1VL6rbPxHjigb+3rLqpcvT0729xlM0KPBZoIeDDYT9FiwmaCXVWwm6GUVmwl6WcVmgl5WsZmgp1s2EwXLKj4b9LKKzwa9rOKzQS+r+GzQyyo+G/Syis8Gvazis0Evq/hs0MsqPhsNxHnBsorPRhN5vIFEXrCs4rNRLZXv5Uu3maRs7Oktq05O9vZYTNCjwWaCHgw2E/RYsJmgl1VsJuhlFZsJelnFZoJeVrGZoKdbNhMFyyo+G/Syis8Gvazis0Evq/hs0MsqPhv0sorPBr2s4rNBL6v4bNDLKj4bDcR5wbKKz0YTebyBRF6wrOKzUS2V7ysbv0bUtnh3V29ZdXDguru7DCbo0WAzQQ8Gmwl6LNhM0MsqNhP0sorNBL2sYjNBL6vYTBTVnWIyUVhsjctGUbUqLhtFhay4bBTVuOKyUVT+istGUc03LhtF5eC4bBRViuOyUVREjstGA3FesKzis9FEHm8gkRcsq/hslKfyDzoVXpc1mcWxCOXtqoBsXje2ndyMO3kF2NJSsavCzolMf4xm4Shp7/Y7wnF2O2Kg/s/d1Ss3e5dh3BelHo1OvFSOo3j+4s5PFmWR759fo3p0JvAmHsn47UxVKda+UXHM1zl+lV4yi+UCQxVaXvZ7zeW50YxmNKMZzWhGM5rRjGY0oxnNaEYzmtGMZjSjGc1oRjOa0YxmNKMZzWhGM5rRjGY0oxnNaEYzmtGMZjSjGc1oRjOa0YxmNKMZzWhGM5rR/KSa573oRsaxP5K/eurFWqfXt3xfVb0am6y/GnsmY18my9drW53VC8TTIEp7gR/K0ldkky+9p1v+Zm3Sy4+en0aBl/pRmEG1klROuxfyMoplS+/N59dyLMPR+gMtPmvv9TtioN5c7qsXmdU/rUBepgqsRHol2zsfy/Q0TFX/ZCYuZ+EwJ21viT9LJFaE8v7u96XvcqvLvxTtdOInvSQfFT1D6npwUy/rv1NvOGn/BWyqtsJXr45n7Evd82mU+ErwZfaxztOsLiXzBao4ujVDWmH54UiqeOg6HcO7V9dV1RsvfRkof2sv+3QRJ+M4mk3lSHz/vfjH8vO73vnES5bvv6sA23rYOv9ia9YhPW88fqVs9AIZjtOJeC5c8W/RehEELXG0/o0k8Iey3XW23vc/bJXG26MniWLRvsoepf+DuMrMLF11aVd99s9sxjEfIHUpN17qvb/60Pso5+L4+HjRedUUc9XlsF+ZPurquoil97HKzZ8M7zH9vuqv5dMdK7dWzrD0lLyQQ+/cSxJ/HMrRiSoRkbzPe/JDta5cDfR0lkzaVcciG9KjxXhWj6QgONJ5yp76ZlUrSRpHH6WencV3q1qKpt7QT+d6ppZfrvxUuYmVqaoqq4lkfVqpEh7Gk4+6VuG8PvGIrnBM1UzCTZ/1UyfPqlrf/1S2plDX9rb4/Y934r9v/ngrzt68fffLbz+J129++uVE/Hz69lRP4FU2a8s7Ty3RRBqJJIpTEc6uMz8YirykSSK8ZJgtXvxwrKG46nul8yAzex1xoT+5xDKdxaGYenEiXwWRl7Y9NeVvZUP54LOL/DOtzixfoj0wu3yEMuFP9VZ6uV9/5uGeB3v72UheerMgFdM4yuYw+awjnn13cHBycnr6rObCM8ABDnCAAxzgAAc4wAEOcIDzNHFEMrvOfgQWI6k+FCNvrohiOQINaEADGtCABjSgAQ1oQAMa0BTT3OZbsz6juQhmEjjAAQ5wgAMc4AAHOMABDnCAUwXn/txAR50beDajzg0cOPlf2F682Nk5PAQpSEEKUpCCFKQgBSlIQQpSkIIUpJtB6uakXkqR9nPSwcB1D/ZAClKQghSkIAUpSEEKUpCCFKQgBelmkA4U6avYJ0jdw5zUcfb3BwOQghSkIAUpSEEKUpCCFKQgBSlIQboZpDuK9N1kRpEe5KSH2bX7I0hBClKQghSkIAUpSEEKUpCCFKQg3QzSXUX6HzmiSPdz0pcvT07290EKUpCCFKQgBSlIQQpSkIIUpCAF6WaQ7uW/mZhJinQvJz052dsDKUhBClKQghSkIAUpSEEKUpCCFKSbQrqvSH+NqMqC7m5OenDguru7IAUpSEEKUpCCFKQgBSlIQQpSkIK0MdIVyij2btulYne91E8DeTbxprKXyru0/eznaBYn5Rjzx3e+9K9lmPhRGMgkVyiR2N4WL0Yj4YlcSdz66UQk0bUUo0HJncnNuOdNpzIctVvKdmur5IbV1fPSNG637lodsdc3vGme3eTq35Sk80Au8LpeOJxEcXZ/K5CXBrRLjcsoTLu30h9PUqVxEQUjfY3F2JxNu/+LQumIN5eX/lCKs3nSHYhXQdx1xNlw0n0hfv49GF6n3SSaZcPwv9/Eb6cnP6qvpfJaDMTvZ/8Tb4ZD9d1nW0UD+3w7Gcb+NP0X+Z3n2yP/5svN5D20WKYl/NFxa6i8/iTrKM8PZXw+cFsi773j1shPpoE3P/LDIGvqXgTR8OMPLZovE108gkjn0+x+1YHbV96Nt/i08E513XixclBxLEb+9TSQvVDent2M263vHjN2xE6/n/9TGnBKduSlXqb7/s9W4F3IoHXUGslLbxakYhpHl34gW51Fy/ld68jp9TutGy+YyeX/D9W8lN2TTTUnJ6enrU8dLR2XSWfApLPDpLPLpLPHpLPPpHPApHPIpOP0uYS4PNrhcmmHy6cdLqd2uLza4XJrh8uvHS7Hdrg82+XybJdtrubybJfLs10jzxbJ7Pp67aBqrYwWy5GBDNlHZjJkD5nJkP1jJkPGvZkMGfVmMmTMm8mQEW8mQ8a7mQydyAx1mPyYTmOGOkyeTCcxQx0mX6ZTmKEOkzfTCcxQh8mf6fRlqMM1LzP5M527DHX0/fnWD1PztHWhPtLXIbvHUIfsHkMdsnsMdchwN9Qhw91Qhwx3Qx0y3A11yHA31KHzl6kQl0fTGcxUiMun6RxmKsTl1XQWMxXi8ms6j5kKcXk2nclMhdjmai7PppOZqZC+Z9//5aL0ZGEqzfXXftBbHD3MYMKt38SgfhM79ZvYrd/EXv0m9us3cVC/icP6Taxl9rpsNBDfTgMB7jQQ4U4DIe40EONOA0HuNBDlTgNh7jQQ524Dce42kccbiHO3gTh3q8V56QGOesuqxQmPDCbo0WAzQQ8Gmwl6LNhM0FMumwl6xmUzQU+4bCbo+ZbNBD3dspkoWFbx2WggvguWVXw2GojwgmUVn40GYrxgWcVno4EoL1hW8dloIM4LllV8NprI4w3EecGyis9GtTgvPSdLb1m1OEiLwQQ9Gmwm6MFgM0GPBZsJesplM0HPuGwm6AmXzQQ937KZoPdGsZko2BDIZ4PeUcVng95sxWeD3ofFZ4PeosVng96XyGeD3rLIZ4Pezchng97oyGejgTgvWFbx2WgijzeQyAuWVXw2qqXy0uNI9JZVi/NKGEzQo8Fmgh4MNhP0WLCZoJdVbCboZRWbCXpZxWaCXlaxmaCnWzYTBcsqPhv0sorPBr2s4rNBL6v4bNDLKj4b9LKKzwa9rOKzQS+r+GzQyyo+Gw3EecGyis9GE3m8gUResKzis1EtlZdWfddbVi3KwjOYoEeDzQQ9GGwm6LFgM0Evq9hM0MsqNhP0sorNBL2sYjNBT7dsJgqWVXw26GUVnw16WcVng15W8dmgl1V8NuhlFZ8NelnFZ4NeVvHZoJdVfDYaiPOCZRWfjSbyeAOJvGBZxWejWiovLa6rt6xaVN9lMEGPBpsJejDYTNBjwWaCXlaxmaCXVWwm6GUVmwl6WcVmgp5u2UwULKv4bNDLKj4b9LKKzwa9rOKzQS+r+GzQyyo+G/Syis8Gvazis0Evq/hsNBDnBcsqPhtN5PEGEnnBsorPRrVUXlrDUG9ZtShyyGCCHg02E/RgsJmgx4LNBL2sYjNBL6vYTNDLKjYT9LKKzURR3SkmE4XF1rhsFFWr4rJRVMiKy0ZRjSsuG0Xlr7hsFNV847JRVA6Oy0ZRpTguG0VF5LhsNBDnBcsqPhtN5PEGEnnBsorPRnkq/6BT4XVZvlkci1DergrI5nVj28nNuJNXgC0tFbuqAZ3I9MdoFo6S9m6/IxxntyMG6v/cXb1ys3cZxn1p69HoxEvlOIrnL+78ZFFD+f75NQpNZwJv4pGM385USWPtGxXHfJ3jV+kls1guMFRV5mW/11zkG81oRjOa0YxmNKMZzWhGM5rRjGY0oxnNaEYzmtGMZjSjGc1oRjOa0YxmNKMZzWhGM5rRjGY0oxnNaEYzmtGMZjSjGc1oRjOa0YxmNKMZzU+qed6LbmQc+yP5q6derHV6fcv3VdWrscn6q7FnMvZlsny9ttVZvUA8DaK0F/ihLH1FNvnSe7rlb9Ymvfzo+WkUeKkfhRlUK0nltHshL6NYtvTefH4txzIcrT/Q4rP2Xr8jBurN5b56kVn90wrkZarASqRXsr3zsUxPw1T1T2bichYOc9L2lvizRGJFKO/vfl/6Lre6/EvRTid+0kvyUdEzpK4HN/Wy/jv1hpP2X8Cmait89ep4xr7UPZ9Gia8EX2Yf6zzN6lIyX6CKo1szpBWWH46kioeu0zG8e3VdVb3x0peB8rf2sk8XcTKOo9lUjsT334t/LD+/651PvGT5/rsKsK2HrfMvtmYd0vPG41fKRi+Q4TidiOfCFf8WrRdB0BJH699IAn8o211n633/w1ZpvD16kigW7avsUfo/iKvMzNJVl3bVZ//MZhzzAVKXcuOl3vurD72Pci6Oj48XnVdNMVddDvuV6aOurotYeh+r3PzJ8B7T76v+Wj7dsXJr5QxLT8kLOfTOvSTxx6EcnagSEcn7vCc/VOvK1UBPZ8mkXXUssiE9Woxn9UgKgiOdp+ypb1a1kqRx9FHq2Vl8t6qlaOoN/XSuZ2r55cpPlZtYmaqqsppI1qeVKuFhPPmoaxXO6xOP6ArHVM0k3PRZP3XyrKr1/U9lawp1bW+L3/94J/775o+34uzN23e//PaTeP3mp19OxM+nb0/1BF5ls7a889QSTaSRSKI4FeHsOvODochLmiTCS4bZ4sUPxxqKq75XOg8ys9cRF/qTSyzTWRyKqRcn8lUQeWnbU1P+VjaUDz67yD/T6szyJdoDs8tHKBP+VG+ll/v1Zx7uebC3n43kpTcLUjGNo2wOk8864tl3BwcnJ6enz2ouPAMc4AAHOMABDnCAAxzgAAc4TxNHJLPr7EdgMZLqQzHy5oooliPQgAY0oAENaEADGtCABjSgAU0xzW2+NeszmotgJoEDHOAABzjAAQ5wgAMc4AAHOFVw7s8NdNS5gWcz6tzAgZP/he3Fi52dw0OQghSkIAUpSEEKUpCCFKQgBSlIQboZpG5O6qUUaT8nHQxc92APpCAFKUhBClKQghSkIAUpSEEKUpBuBulAkb6KfYLUPcxJHWd/fzAAKUhBClKQghSkIAUpSEEKUpCCFKSbQbqjSN9NZhTpQU56mF27P4IUpCAFKUhBClKQghSkIAUpSEEK0s0g3VWk/5EjinQ/J3358uRkfx+kIAUpSEEKUpCCFKQgBSlIQQpSkG4G6V7+m4mZpEj3ctKTk709kIIUpCAFKUhBClKQghSkIAUpSEG6KaT7ivTXiKos6O7mpAcHrru7C1KQghSkIAUpSEEKUpCCFKQgBSlIGyNdoYxi77ZdKnbXS/00kGcTbyp7qbxL289+jmZxUo4xf3znS/9ahokfhYFMcoUSie1t8WI0Ep7IlcStn05EEl1LMRqU3JncjHvedCrDUbulbLe2Sm5YXT0vTeN2667VEXt9w5vm2U2u/k1JOg/kAq/rhcNJFGf3twJ5aUC71LiMwrR7K/3xJFUaF1Ew0tdYjM3ZtPu/KJSueOWHUpylUeyNs//Ok+6OeBXEXUecDSfdF+Ln34PhddpNolk2GP/7Tfx2evKj+loqr8WO+P3sf+LNcKi++2yraHifbyfD2J+m/yK/83x75N98uZm8hxbLtIQ/Om4Nle+fZN3lZY8Znw8GLZH34XFr5CfTwJsf+WGQNXUvgmj48YcWzZeJLh5BpPNpdr/qxu0r78ZbfFp4p7puvFi5qTgWI/96GsheKG/Pbsbt1nePGTtip9/P/ykNOyU78lIv033/ZyvwLmTQOmqN5KU3C1IxjaNLP5CtzqLl/K515PT6ndaNF8zk8v+HanbK7skmnJOT09PWp46WjsukM2DS2WHS2WXS2WPS2WfSOWDSOWTScfpcQlwe7XC5tMPl0w6XUztcXu1wubXD5dcOl2M7XJ7tcnm2yzZXc3m2y+XZrpFni2R2fb12XLVWRovlyECG7CMzGbKHzGTI/jGTIePeTIaMejMZMubNZMiIN5Mh491Mhk5khjpMfkynMUMdJk+mk5ihDpMv0ynMUIfJm+kEZqjD5M90+jLU4ZqXmfyZzl2GOvr+fOuHqXnaulAf6euQ3WOoQ3aPoQ7ZPYY6ZLgb6pDhbqhDhruhDhnuhjpkuBvq0PnLVIjLo+kMZirE5dN0DjMV4vJqOouZCnH5NZ3HTIW4PJvOZKZCbHM1l2fTycxUSN+z7/9+UXq+MJXm+ms/6C0OIGYw4dZvYlC/iZ36TezWb2KvfhP79Zs4qN/EYf0m1jJ7XTYaiG+ngQB3Gohwp4EQdxqIcaeBIHcaiHKngTB3Gohzt4E4d5vI4w3EudtAnLvV4rz0GEe9ZdXinEcGE/RosJmgB4PNBD0WbCboKZfNBD3jspmgJ1w2E/R8y2aCnm7ZTBQsq/hsNBDfBcsqPhsNRHjBsorPRgMxXrCs4rPRQJQXLKv4bDQQ5wXLKj4bTeTxBuK8YFnFZ6NanJeelqW3rFocp8Vggh4NNhP0YLCZoMeCzQQ95bKZoGdcNhP0hMtmgp5v2UzQe6PYTBRsCOSzQe+o4rNBb7bis0Hvw+KzQW/R4rNB70vks0FvWeSzQe9m5LNBb3Tks9FAnBcsq/hsNJHHG0jkBcsqPhvVUnnpoSR6y6rFqSUMJujRYDNBDwabCXos2EzQyyo2E/Syis0EvaxiM0Evq9hM0NMtm4mCZRWfDXpZxWeDXlbx2aCXVXw26GUVnw16WcVng15W8dmgl1V8NuhlFZ+NBuK8YFnFZ6OJPN5AIi9YVvHZqJbKS2u/6y2rFsXhGUzQo8Fmgh4MNhP0WLCZoJdVbCboZRWbCXpZxWaCXlaxmaCnWzYTBcsqPhv0sorPBr2s4rNBL6v4bNDLKj4b9LKKzwa9rOKzQS+r+GzQyyo+Gw3EecGyis9GE3m8gUResKzis1EtlZeW2NVbVi1q8DKYoEeDzQQ9GGwm6LFgM0Evq9hM0MsqNhP0sorNBL2sYjNBT7dsJgqWVXw26GUVnw16WcVng15W8dmgl1V8NuhlFZ8NelnFZ4NeVvHZoJdVfDYaiPOCZRWfjSbyeAOJvGBZxWejWiovrWSot6xalDpkMEGPBpsJejDYTNBjwWaCXlaxmaCXVWwm6GUVmwl6WcVmoqjuFJOJwmJrXDaKqlVx2SgqZMVlo6jGFZeNovJXXDaKar5x2SgqB8dlo6hSHJeNoiJyXDYaiPOCZRWfjSbyeAOJvGBZxWejPJV/0KnwuiziLI5FKG9XBWTzurHt5GbcySvAlpaKXVWCTmT6YzQLR0l7t98RjrPbEQP1f+6uXrnZuwzjvsD1aHTipXIcxfMXd36yqKR8//wa5aYzgTfxSMZvZ6qwsfaNimO+zvGr9JJZLBcYqjbzst9rLvWNZjSjGc1oRjOa0YxmNKMZzWhGM5rRjGY0oxnNaEYzmtGMZjSjGc1oRjOa0YxmNKMZzWhGM5rRjGY0oxnNaEYzmtGMZjSjGc1oRjOa0YzmJ9U870U3Mo79kfzVUy/WOr2+5fuq6tXYZP3V2DMZ+zJZvl7b6qxeIJ4GUdoL/FCWviKbfOk93fI3a5NefvT8NAq81I/CDKqVpHLavZCXUSxbem8+v5ZjGY7WH2jxWXuv3xED9eZyX73IrP5pBfIyVWAl0ivZ3vlYpqdhqvonM3E5C4c5aXtL/FkisSKU93e/L32XW13+pWinEz/pJfmo6BlS14Obeln/nXrDSfsvYFO1Fb56dTxjX+qeT6PEV4Ivs491nmZ1KZkvUMXRrRnSCssPR1LFQ9fpGN69uq6q3njpy0D5W3vZp4s4GcfRbCpH4vvvxT+Wn9/1zidesnz/XQXY1sPW+Rdbsw7peePxK2WjF8hwnE7Ec+GKf4vWiyBoiaP1bySBP5TtrrP1vv9hqzTeHj1JFIv2VfYo/R/EVWZm6apLu+qzf2YzjvkAqUu58VLv/dWH3kc5F8fHx4vOq6aYqy6H/cr0UVfXRSy9j1Vu/mR4j+n3VX8tn+5YubVyhqWn5IUceudekvjjUI5OVImI5H3ekx+qdeVqoKezZNKuOhbZkB4txrN6JAXBkc5T9tQ3q1pJ0jj6KPXsLL5b1VI09YZ+Otcztfxy5afKTaxMVVVZTSTr00qV8DCefNS1Cuf1iUd0hWOqZhJu+qyfOnlW1fr+p7I1hbq2t8Xvf7wT//3/2zvb5rRxLY6/v59C1zuzIXOBYAjkYZu9kxLSdKZtOqGdnW2mkxFYgBNjeyw5CbOT776WMbmQxEXyQ1v2/vUipJb110/yOUdq5R7OP1+Q/vnFp7cf3pB352/edslZ76KnJnAaRW12T+UWjQiPcC8QxA2nkR0MSZzShBPKh9HmxXbHCoqLuZc6SyszrZKBenAJmAgDl/g04OzU8aioUBnyt6NHuXRtEF9Tmsz1W7SlbpMhrBN+KDfTy+P+M3b32NkrWxYb0dARxA+8KIaxrSrZ+mV/v9vt9bZKTjwDHOAABzjAAQ5wgAMc4AAHOP9MHMLDafRXYGIxeZFYdCaJAmaBBjSgAQ1oQAMa0IAGNKABDWi+TXMXv5r1hGbghAw4wAEOcIADHOAABzjAAQ5wgJMF5/F7A035vYH9MO17A1tmfMJ2fLy7e3AAUpCCFKQgBSlIQQpSkIIUpCAFKUg3g7QZk1KRRtqISVutZnO/A1KQghSkIAUpSEEKUpCCFKQgBSlIN4O0JUlPAzuFtHkQk5rm3l6rBVKQghSkIAUpSEEKUpCCFKQgBSlIN4N0V5J+moRppPsx6UFU2q9BClKQghSkIAUpSEEKUpCCFKQgBelmkLYl6R/MSiPdi0lPTrrdvT2QghSkIAUpSEEKUpCCFKQgBSlIQboZpJ34XyZClkbaiUm73U4HpCAFKUhBClKQghSkIAUpSEEKUpBuCumeJH3vpWUWbLZj0v39ZrPdBilIQQpSkIIUpCAFKUhBClKQghSk3410gWIF9K6yVuy+LmzhsP6E+qwu2L2obJ15YcDXY8yetzyxp8zltuc6jMcKayR2dsixZRFKYiVyZ4sJ4d6UEau1piW/Hdep7zPXqhiyb2N7TYNFqVMhgopxb1RJp6HZaBY1aqo34mLmsDlejbrDiRdE7Q2HjTRoE42R54raHbPHEyE1Bp5jqWvMn03fr33xXNYir0PnhvSFF9AxI/0Zr+2SUyeomaQ/nNSOydlHZzgVNUa5IF8+kA+97mt5l2BTsks+9r+Q8+FQ3rq1/a2n+2qHDwPbF7+n3vNqx7JvX65ObZMuFmkR2zoyhtL0u9FsUdtlwVVr1yDxFB4Zls19h84ObdeJqmoDxxve/Gak80Wi8yEQMfOj9nIWd67pLZ1f/WZLWW5pIK2UHBHLnvoOq7vsrn87rhi/PGeskt1GI/6x1uukrEUFjXQv/zIcOmCOcWhYbERDRxA/8Ea2w4zqvObq3jg0642qcUudkBmHnYP6wVLZP6gaQxmqIoUo+nS7vZ7xUFVSbZai2ipFdbcU1XYpqp1SVPdKUd0vRfWgFFWzUY5sOd5lluNeZjn+ZZbjYGY5HmaW42JmOT5mluNkZjle1izHy5olrWHleFmzHC9r5vAywsPpdOXbvzPsEAJmaYgqzq2eqOLM6okqzqueqGLs0hNVjFx6oopxS09UMWrpiSrGLD1R1Y2BpmopPqW6LdBULcWrVDcFmqql+JXqlkBTtRTPUt0QaKqW4luq2wFN1XLWq1J8S3UvoKma1bfubFfk3QYM5A3qqorTqqmqOK2aqorTqqmqGLI0VRVDlqaqYsjSVFUMWZqqiiFLU1V1P6ArW453qe4IdGXL8S/VPYGubDkepror0JUtx8dU9wW6suV4merOQFe2pDWsHC9T3Rzoymp52VeVA4fkSJEcEZfdLc4z4mOMCr8dV+MDibUnF4tzSc7Eay90LV5pN6rENNtV0pK/Ndtqpx/3EcbjcatldalgYy+YHd/bfH6u9zgVCoefkcB5YLHgIpTHbMoNJcdsleM9ozwM2BxDnhQmjyDvcW58jrTaVZ8FNuMJbtRT8kB8xxN1ebi1tkv+0rjXk/J6bHe+51Bhe24EZXDB/NqAjbyAGWqW9I6NmWutDmh+rdKJrKAlLUEehpnyR3JauvYgeSFbvxoz0XOFnJ+oi1HoDmPSyjb5S+G4VBKyx9aXa31DFntEKmJi88iuZTu1jmRZalSP5q9Hh5PK/4B11Rb4ydlgonvle9yWgifRZZXRLIqUeYEq8O70kBZYtmsx6bg1s6rZelGuszYc2cyR9lZJ5nTuJ+PAC31mkV9/Jf9Ort/XryaUJ/FEOtj2cu3sxdpoQup0PD6VfdQd5o7FhLwiTfJfYhw7jkEOV+/gjj1klZq5fdn4ur3W356NxAtI5ToaSuM3ch11k5hq0q+89p8jYuo/IFmkGSd6l9df6zcsCm9HR/PJy6YYqyaP/Vp3qIsyCBi9ydL4QbON7v1yvpLRHUmzlsaQWEq8MNav5q8CMSt+GYhfxjP5NdtULh60H/JJJeuziB7p4fx5ZvckxzlUGWVd3pm1Fy4C74ap9TO/N2tPnk+HtpipdZXcnHlUcReLrrKqLALJaljJ4h7awUeWhTuvBh5SI6aumo67qbM+VONVVen+h3V7Cll2dsjHz5/In+efL0j//OLT2w9vyLvzN2+75Kx30VMTOI2iNruncotGhEe4F22k3XAa2cGQxFtETigfRpsX2x0rKC7mXuosrcy0SgbqwSVgIgxc4tOAs1PHo6JCZcjfjh7l0rVBfE1pMtdv0Za6TYawTvjhB7yy+eQANnkvUx6o/pA3SIEDHOAABzjAAQ5wgAMc4ABn43Gev+AiiQJmgQY0oAENaEADGtCABjSgAQ1ovk3z7JVASSNf8QMOcIADHOAABzjAAQ5wgAMc4PzARImf2NRnARVhwEjldBupEn+qVIl/UGlxZyz+OJ4ObOYKIh+ZzHvIrDCa/xrZa5xuRgrE9gakQGx/txSI8X88zZqCqSCdVkE6uwXptAvS6RSks1eQzn5BOgcF6azkFsglVJRFm0WZtFmUTZtFGbVZlFWbRZm1WZRdm0UZtlmUZTeLsuxmYbG6KMtuFmXZTS3LVk/ZtyKVPUlfDpnUGcqeiC+HTKrfZ0+2l0Mm1eezJ9TLIZPq7zmS5uXRKciO05exHKnw8ugUZMrpa1iOBHd5dAqy5vQFLEfaujxxsCB7Tl+9ciSjy6NTkD2nL13ZU8ytyORIKpdHJ3V6ciSOy6OT6u45ksPl0Ul19xwJ4PLopLp7niRvuYSKsuj0FSxP6rZcQkUZdfoilichWy6houw6fR3Lk2YtV2QsyrLTl7I8ydNyCRVl2emrGVKibURKNFSjGtWoRjWqUY1qVKMa1ahGNapRjWpU/0zVs7p3y4LAtth7Kv+hyqw3kBJ/aSRIif9YkBJfqyAlPlLiaxSkxH9akBL/aUFKfM2ClPhIif9iQUp84AAHOMABDnCAAxzgAAc4wAHOJiSUBA1oQAMa0IAGNKABDWhAA5rNofm/SWQJHOAABzjAAQ5wgAMc4AAHONn7+wEp8U/sKXO57bkO4xwJ8X+uhPhecEN6o5E9tJk7nD2mwf++CfCTu5/ULP958fv881E9+eXxY+BZM/k5EVPn93/9DZ1YjKc="
               },
               {
                  "name" : "annual_peak_electric_demand",
                  "units" : "kW",
                  "value" : 76.858530000000002
               },
               {
                  "name" : "first_year_capital_cost",
                  "units" : "$",
                  "value" : 0
               },
               {
                  "name" : "annual_utility_cost",
                  "units" : "$",
                  "value" : 0
               },
               {
                  "name" : "total_lifecycle_cost",
                  "units" : "$",
                  "value" : 0
               }
            ],
            "step_warnings" : []
         }
      }
   ],
   "updated_at" : "20170710T192222Z",
   "weather_file" : "USA_CO_Denver.Intl.AP.725650_TMY3.epw"
}
