{
   "completed_at" : "20170710T184953Z",
   "completed_status" : "Success",
   "created_at" : "2017-07-10 18:47:54 +0000",
   "current_step" : 5,
   "description" : "",
   "eplusout_err" : "Program Version,EnergyPlus, Version 8.7.0-78a111df4a, YMD=2017.07.10 18:49,IDD_Version 8.7.0\n   ************* IDF Context for following error/warning message:\n   ************* Note -- lines truncated at 300 characters, if necessary...\n   *************      5 Building,\n   ************* indicated Name=NECB 2011-Warehouse-NECB HDD Method-CAN_MB_Churchill.719130_CWEC.epw created: 2017-07-10 18:48:00 +0000\n   ************* Only last 1 lines before error line shown.....\n   *************      6   NECB 2011-Warehouse-NECB HDD Method-CAN_MB_Churchill.719130_CWEC.epw created: 2017-07-10 18:48:00 +0000, !- Name\n   ** Warning ** IP: IDF line~6 Alpha Argument length exceeds maximum, will be truncated=  NECB 2011-Warehouse-NECB HDD Method-CAN_MB_Churchill.719130_CWEC.epw created: 2017-07-10 18:48:00 +000\n   **   ~~~   ** Will be processed as Alpha=NECB 2011-WAREHOUSE-NECB HDD METHOD-CAN_MB_CHURCHILL.719130_CWEC.EPW CREATED: 2017-07-10 18:48:00 +0000\n   ************* Beginning Zone Sizing Calculations\n   ** Warning ** ProcessScheduleInput: Schedule:Day:Interval=\"ECONOMIZER MAX OA FRACTION 100 PCT DEFAULT\", Blank Schedule Type Limits Name input -- will not be validated.\n   ** Warning ** ProcessScheduleInput: Schedule:Day:Interval=\"SCHEDULE DAY 1\", Blank Schedule Type Limits Name input -- will not be validated.\n   ** Warning ** ProcessScheduleInput: Schedule:Day:Interval=\"SCHEDULE DAY 10\", Blank Schedule Type Limits Name input -- will not be validated.\n   ** Warning ** ProcessScheduleInput: Schedule:Day:Interval=\"SCHEDULE DAY 11\", Blank Schedule Type Limits Name input -- will not be validated.\n   ** Warning ** ProcessScheduleInput: Schedule:Day:Interval=\"SCHEDULE DAY 12\", Blank Schedule Type Limits Name input -- will not be validated.\n   ** Warning ** ProcessScheduleInput: Schedule:Day:Interval=\"SCHEDULE DAY 13\", Blank Schedule Type Limits Name input -- will not be validated.\n   ** Warning ** ProcessScheduleInput: Schedule:Day:Interval=\"SCHEDULE DAY 14\", Blank Schedule Type Limits Name input -- will not be validated.\n   ** Warning ** ProcessScheduleInput: Schedule:Day:Interval=\"SCHEDULE DAY 15\", Blank Schedule Type Limits Name input -- will not be validated.\n   ** Warning ** ProcessScheduleInput: Schedule:Day:Interval=\"SCHEDULE DAY 16\", Blank Schedule Type Limits Name input -- will not be validated.\n   ** Warning ** ProcessScheduleInput: Schedule:Day:Interval=\"SCHEDULE DAY 17\", Blank Schedule Type Limits Name input -- will not be validated.\n   ** Warning ** ProcessScheduleInput: Schedule:Day:Interval=\"SCHEDULE DAY 18\", Blank Schedule Type Limits Name input -- will not be validated.\n   ** Warning ** ProcessScheduleInput: Schedule:Day:Interval=\"SCHEDULE DAY 19\", Blank Schedule Type Limits Name input -- will not be validated.\n   ** Warning ** ProcessScheduleInput: Schedule:Day:Interval=\"SCHEDULE DAY 2\", Blank Schedule Type Limits Name input -- will not be validated.\n   ** Warning ** ProcessScheduleInput: Schedule:Day:Interval=\"SCHEDULE DAY 5\", Blank Schedule Type Limits Name input -- will not be validated.\n   ** Warning ** ProcessScheduleInput: Schedule:Day:Interval=\"SCHEDULE DAY 6\", Blank Schedule Type Limits Name input -- will not be validated.\n   ** Warning ** ProcessScheduleInput: Schedule:Day:Interval=\"SCHEDULE DAY 7\", Blank Schedule Type Limits Name input -- will not be validated.\n   ** Warning ** ProcessScheduleInput: Schedule:Day:Interval=\"SCHEDULE DAY 8\", Blank Schedule Type Limits Name input -- will not be validated.\n   ** Warning ** ProcessScheduleInput: Schedule:Day:Interval=\"SCHEDULE DAY 9\", Blank Schedule Type Limits Name input -- will not be validated.\n   ** Warning ** ProcessScheduleInput: Schedule:Year=\"ECONOMIZER MAX OA FRACTION 100 PCT\", Blank Schedule Type Limits Name input -- will not be validated.\n   ** Warning ** ProcessScheduleInput: Schedule:Year=\"SCHEDULE RULESET 10\", Blank Schedule Type Limits Name input -- will not be validated.\n   ** Warning ** ProcessScheduleInput: Schedule:Year=\"SCHEDULE RULESET 11\", Blank Schedule Type Limits Name input -- will not be validated.\n   ** Warning ** ProcessScheduleInput: Schedule:Year=\"SCHEDULE RULESET 3\", Blank Schedule Type Limits Name input -- will not be validated.\n   ** Warning ** ProcessScheduleInput: Schedule:Year=\"SCHEDULE RULESET 4\", Blank Schedule Type Limits Name input -- will not be validated.\n   ** Warning ** ProcessScheduleInput: Schedule:Year=\"SCHEDULE RULESET 5\", Blank Schedule Type Limits Name input -- will not be validated.\n   ** Warning ** ProcessScheduleInput: Schedule:Year=\"SCHEDULE RULESET 6\", Blank Schedule Type Limits Name input -- will not be validated.\n   ** Warning ** ProcessScheduleInput: Schedule:Year=\"SCHEDULE RULESET 7\", Blank Schedule Type Limits Name input -- will not be validated.\n   ** Warning ** ProcessScheduleInput: Schedule:Year=\"SCHEDULE RULESET 8\", Blank Schedule Type Limits Name input -- will not be validated.\n   ** Warning ** ProcessScheduleInput: Schedule:Year=\"SCHEDULE RULESET 9\", Blank Schedule Type Limits Name input -- will not be validated.\n   ** Warning ** ProcessScheduleInput: Schedule:Constant=\"ALWAYS OFF DISCRETE\", Blank Schedule Type Limits Name input -- will not be validated.\n   ** Warning ** ProcessScheduleInput: Schedule:Constant=\"ALWAYS ON CONTINUOUS\", Blank Schedule Type Limits Name input -- will not be validated.\n   ** Warning ** CheckUsedConstructions: There are 22 nominally unused constructions in input.\n   **   ~~~   ** For explicit details on each unused construction, use Output:Diagnostics,DisplayExtraWarnings;\n   ************* Beginning System Sizing Calculations\n   ************* Beginning Plant Sizing Calculations\n   ** Warning ** GetDXCoils: Coil:Cooling:DX:SingleSpeed=\"COIL COOLING DX SINGLE SPEED 1 31KBTU/HR 14.0SEER\", invalid\n   **   ~~~   ** ...Part Load Fraction Correlation Curve Name = DXCOOL-NECB2011-REF-COOLPLFFPLR has out of range value.\n   **   ~~~   ** ...Curve maximum must be <= 1.0, curve max at PLR = 0.99 is 1.015\n   **   ~~~   ** ...Setting curve maximum to 1.0 and simulation continues.\n   ** Warning ** GetDXCoils: Coil:Cooling:DX:SingleSpeed=\"COIL COOLING DX SINGLE SPEED 3 171KBTU/HR 9.7EER\", invalid\n   **   ~~~   ** ...Part Load Fraction Correlation Curve Name = DXCOOL-NECB2011-REF-COOLPLFFPLR 2 has out of range value.\n   **   ~~~   ** ...Curve maximum must be <= 1.0, curve max at PLR = 0.99 is 1.015\n   **   ~~~   ** ...Setting curve maximum to 1.0 and simulation continues.\n   ** Warning ** GetDXCoils: Coil:Cooling:DX:SingleSpeed=\"COIL COOLING DX SINGLE SPEED 2 457KBTU/HR 8.39EER\", invalid\n   **   ~~~   ** ...Part Load Fraction Correlation Curve Name = DXCOOL-NECB2011-REF-COOLPLFFPLR 1 has out of range value.\n   **   ~~~   ** ...Curve maximum must be <= 1.0, curve max at PLR = 0.99 is 1.015\n   **   ~~~   ** ...Setting curve maximum to 1.0 and simulation continues.\n   ** Warning ** The Standard Ratings is calculated for Coil:Cooling:DX:SingleSpeed = COIL COOLING DX SINGLE SPEED 1 31KBTU/HR 14.0SEER but not at the AHRI test condition due to curve out of bound.\n   **   ~~~   **  Review the Standard Ratings calculations in the Engineering Reference for this coil type. Also, use Output:Diagnostics, DisplayExtraWarnings for further guidance.\n   ** Warning ** The Standard Ratings is calculated for Coil:Cooling:DX:SingleSpeed = COIL COOLING DX SINGLE SPEED 3 171KBTU/HR 9.7EER but not at the AHRI test condition due to curve out of bound.\n   **   ~~~   **  Review the Standard Ratings calculations in the Engineering Reference for this coil type. Also, use Output:Diagnostics, DisplayExtraWarnings for further guidance.\n   ** Warning ** The Standard Ratings is calculated for Coil:Cooling:DX:SingleSpeed = COIL COOLING DX SINGLE SPEED 2 457KBTU/HR 8.39EER but not at the AHRI test condition due to curve out of bound.\n   **   ~~~   **  Review the Standard Ratings calculations in the Engineering Reference for this coil type. Also, use Output:Diagnostics, DisplayExtraWarnings for further guidance.\n   ** Warning ** Check input. Pump nominal power or motor efficiency is set to 0, for pump=SERVICE WATER LOOP PUMP\n   ** Warning ** Output:Meter: invalid Name=\"GAS:FACILITY\" - not found.\n   ** Warning ** Output:Meter: invalid Name=\"DISTRICTCOOLING:FACILITY\" - not found.\n   ** Warning ** Output:Meter: invalid Name=\"DISTRICTHEATING:FACILITY\" - not found.\n   ** Warning ** Output:Meter:MeterFileOnly: invalid Name=\"GAS:FACILITY\" - not found.\n   ** Warning ** Output:Meter:MeterFileOnly requested for \"Electricity:Facility\" (TimeStep), already on \"Output:Meter\". Will report to both eplusout.eso and eplusout.mtr\n   ************* Testing Individual Branch Integrity\n   ************* All Branches passed integrity testing\n   ************* Testing Individual Supply Air Path Integrity\n   ************* All Supply Air Paths passed integrity testing\n   ************* Testing Individual Return Air Path Integrity\n   ************* All Return Air Paths passed integrity testing\n   ************* No node connection errors were found.\n   ************* Beginning Simulation\n   ** Warning ** CalcDoe2DXCoil: Coil:Cooling:DX:SingleSpeed \"COIL COOLING DX SINGLE SPEED 1 31KBTU/HR 14.0SEER\" - Air-cooled condenser inlet dry-bulb temperature below 0 C. Outdoor dry-bulb temperature = -22.35\n   **   ~~~   **  ... Occurrence info = RUN PERIOD 1, 01/02 06:03 - 06:05\n   **   ~~~   ** ... Operation at low ambient temperatures may require special performance curves.\n   ** Warning ** Plant Loop: MAIN SERVICE WATER LOOP Demand Side is storing excess heat the majority of the time.\n   ** Warning ** Plant Loop: MAIN SERVICE WATER LOOP Supply Side is storing excess heat the majority of the time.\n   ************* Simulation Error Summary *************\n   ************* There are 9 unused schedules in input.\n   ************* There are 9 unused week schedules in input.\n   ************* There are 18 unused day schedules in input.\n   ************* Use Output:Diagnostics,DisplayUnusedSchedules; to see them.\n   *************\n   ************* ===== Recurring Error Summary =====\n   ************* The following recurring error messages occurred.\n   *************\n   *************  ** Warning ** Plant loop exceeding upper temperature limit, PlantLoop=\"MAIN SERVICE WATER LOOP\"\n   *************  **   ~~~   **   This error occurred 14860 total times;\n   *************  **   ~~~   **   during Warmup 945 times;\n   *************  **   ~~~   **   during Sizing 0 times.\n   *************  **   ~~~   **   Max=81.455288\n   *************\n   *************  ** Warning ** CalcDoe2DXCoil: Coil:Cooling:DX:SingleSpeed=\"COIL COOLING DX SINGLE SPEED 1 31KBTU/HR 14.0SEER\" - Low condenser dry-bulb temperature error continues...\n   *************  **   ~~~   **   This error occurred 403 total times;\n   *************  **   ~~~   **   during Warmup 0 times;\n   *************  **   ~~~   **   during Sizing 0 times.\n   *************  **   ~~~   **   Max=-1.387779E-017 [C]  Min=-37.925 [C]\n   *************\n   *************\n   ************* ===== Final Error Summary =====\n   ************* The following error categories occurred.  Consider correcting or noting.\n   ************* Nominally Unused Constructions\n   ************* ..The nominally unused constructions warning is provided to alert you to potential conditions that can cause\n   ************* ..extra time during simulation. Each construction is calculated by the algorithm indicated in the HeatBalanceAlgorithm\n   ************* ..object. You may remove the constructions indicated (when you use the DisplayExtraWarnings option).\n   *************\n   ************* EnergyPlus Warmup Error Summary. During Warmup: 0 Warning; 0 Severe Errors.\n   ************* EnergyPlus Sizing Error Summary. During Sizing: 31 Warning; 0 Severe Errors.\n   ************* EnergyPlus Completed Successfully-- 15309 Warning; 0 Severe Errors; Elapsed Time=00hr 00min 38.00sec\n",
   "file_format_version" : "0.0.1",
   "file_paths" : [ "../weather", "../seeds", "../seed" ],
   "hash" : "F9F74DE0",
   "measure_paths" : [ "../measures" ],
   "name" : "LHS Autogenerated 413",
   "osa_id" : "4fef0e0f-5396-4c55-a6e1-2cd6803db3ab",
   "osd_id" : "f406c13f-b779-4bf3-814b-74b260e11cf7",
   "run_directory" : "./run",
   "seed_file" : "seed.osm",
   "started_at" : "20170710T184757Z",
   "steps" : [
      {
         "arguments" : {
            "__SKIP__" : false,
            "building_type" : "Warehouse",
            "climate_zone" : "NECB HDD Method",
            "epw_file" : "CAN_MB_Churchill.719130_CWEC.epw",
            "template" : "NECB 2011"
         },
         "measure_dir_name" : "create_prototype_building",
         "name" : "create_prototype_building",
         "result" : {
            "completed_at" : "20170710T184848Z",
            "measure_class_name" : "CreatePrototypeBuilding",
            "measure_display_name" : "Create Prototype Building",
            "measure_name" : "create_prototype_building",
            "measure_taxonomy" : "Whole Building.Space Types",
            "measure_type" : "ModelMeasure",
            "measure_uid" : "ae90fsd7-a651-467a-bc8d-29d310b0f937",
            "measure_version_id" : "c6ec5c18-5595-459f-a082-09a19c8c869c",
            "measure_version_modified" : "20170519T182315Z",
            "measure_xml_checksum" : "057E8D9D",
            "started_at" : "20170710T184759Z",
            "stderr" : "",
            "stdout" : "[OpenStudio.Measure] <0> OSArgumentVector is deprecated, use OpenStudio::Measure::OSArgumentVector instead.\n[openstudio.EpwFile] <0> Successive data points (1973-Jan-31 to 1982-Feb-01, ending on line 753) are greater than 1 day apart in EPW file '/usr/local/bundle/bundler/gems/openstudio-standards-f448df66933d/openstudio-standards/data/weather/CAN_MB_Churchill.719130_CWEC.epw'. Data will be treated as typical (TMY)\n[openstudio.setFileExtension] <0> Path p, '/usr/local/bundle/bundler/gems/openstudio-standards-f448df66933d/openstudio-standards/data/weather/CAN_MB_Churchill.719130_CWEC.ddy', has an unexpected file extension. Was expecting 'idf'.\n[openstudio.model.YearDescription] <1> 'UseWeatherFile' is not yet a supported option for YearDescription\n[openstudio.model.YearDescription] <1> 'UseWeatherFile' is not yet a supported option for YearDescription\n[openstudio.setFileExtension] <0> Path p, '/usr/local/bundle/bundler/gems/openstudio-standards-f448df66933d/openstudio-standards/data/weather/CAN_MB_Churchill.719130_CWEC.ddy', has an unexpected file extension. Was expecting 'idf'.\n[openstudio.model.YearDescription] <1> 'UseWeatherFile' is not yet a supported option for YearDescription\n[openstudio.model.YearDescription] <1> 'UseWeatherFile' is not yet a supported option for YearDescription\n[openstudio.EpwFile] <0> Successive data points (1973-Jan-31 to 1982-Feb-01, ending on line 753) are greater than 1 day apart in EPW file '/usr/local/bundle/bundler/gems/openstudio-standards-f448df66933d/openstudio-standards/data/weather/CAN_MB_Churchill.719130_CWEC.epw'. Data will be treated as typical (TMY)\n[openstudio.weather.Model] <0> Could not find ground temperatures; will use generic temperatures, which will skew results.\n[openstudio.setFileExtension] <0> Path p, '/usr/local/bundle/bundler/gems/openstudio-standards-f448df66933d/openstudio-standards/data/weather/CAN_MB_Churchill.719130_CWEC.ddy', has an unexpected file extension. Was expecting 'idf'.\n[openstudio.model.YearDescription] <1> 'UseWeatherFile' is not yet a supported option for YearDescription\n[openstudio.model.YearDescription] <1> 'UseWeatherFile' is not yet a supported option for YearDescription\n[openstudio.EpwFile] <0> Successive data points (1973-Jan-31 to 1982-Feb-01, ending on line 753) are greater than 1 day apart in EPW file '/usr/local/bundle/bundler/gems/openstudio-standards-f448df66933d/openstudio-standards/data/weather/CAN_MB_Churchill.719130_CWEC.epw'. Data will be treated as typical (TMY)\n[openstudio.setFileExtension] <0> Path p, '/usr/local/bundle/bundler/gems/openstudio-standards-f448df66933d/openstudio-standards/data/weather/CAN_MB_Churchill.719130_CWEC.ddy', has an unexpected file extension. Was expecting 'idf'.\n[openstudio.model.YearDescription] <1> 'UseWeatherFile' is not yet a supported option for YearDescription\n[openstudio.model.YearDescription] <1> 'UseWeatherFile' is not yet a supported option for YearDescription\n[openstudio.setFileExtension] <0> Path p, '/usr/local/bundle/bundler/gems/openstudio-standards-f448df66933d/openstudio-standards/data/weather/CAN_MB_Churchill.719130_CWEC.ddy', has an unexpected file extension. Was expecting 'idf'.\n[openstudio.model.YearDescription] <1> 'UseWeatherFile' is not yet a supported option for YearDescription\n[openstudio.model.YearDescription] <1> 'UseWeatherFile' is not yet a supported option for YearDescription\n[openstudio.EpwFile] <0> Successive data points (1973-Jan-31 to 1982-Feb-01, ending on line 753) are greater than 1 day apart in EPW file '/usr/local/bundle/bundler/gems/openstudio-standards-f448df66933d/openstudio-standards/data/weather/CAN_MB_Churchill.719130_CWEC.epw'. Data will be treated as typical (TMY)\n[openstudio.setFileExtension] <0> Path p, '/usr/local/bundle/bundler/gems/openstudio-standards-f448df66933d/openstudio-standards/data/weather/CAN_MB_Churchill.719130_CWEC.ddy', has an unexpected file extension. Was expecting 'idf'.\n[openstudio.model.YearDescription] <1> 'UseWeatherFile' is not yet a supported option for YearDescription\n[openstudio.model.YearDescription] <1> 'UseWeatherFile' is not yet a supported option for YearDescription\n[openstudio.setFileExtension] <0> Path p, '/usr/local/bundle/bundler/gems/openstudio-standards-f448df66933d/openstudio-standards/data/weather/CAN_MB_Churchill.719130_CWEC.ddy', has an unexpected file extension. Was expecting 'idf'.\n[openstudio.model.YearDescription] <1> 'UseWeatherFile' is not yet a supported option for YearDescription\n[openstudio.model.YearDescription] <1> 'UseWeatherFile' is not yet a supported option for YearDescription\n[utilities.idf.WorkspaceObject] <0> Object of type 'Schedule:Constant' and named 'Always Off Discrete', points to an object named OnOff 1 from field 1, but that object cannot be located.\n[utilities.idf.WorkspaceObject] <0> Object of type 'Schedule:Constant' and named 'Always On Continuous', points to an object named Fractional 1 from field 1, but that object cannot be located.\n[utilities.idf.WorkspaceObject] <0> Object of type 'Schedule:Constant' and named 'Always Off Discrete', points to an object named OnOff 1 from field 1, but that object cannot be located.\n[utilities.idf.WorkspaceObject] <0> Object of type 'Schedule:Constant' and named 'Always On Continuous', points to an object named Fractional 1 from field 1, but that object cannot be located.\n[openstudio.standards.Fan] <0> For Fan Constant Volume 1, there is no greater nominal HP.  Use the efficiency of the largest motor category.\n[openstudio.standards.Fan] <0> For Fan Constant Volume 2, there is no greater nominal HP.  Use the efficiency of the largest motor category.\n[openstudio.standards.Fan] <0> For Fan Constant Volume 3, there is no greater nominal HP.  Use the efficiency of the largest motor category.\n[openstudio.EpwFile] <0> Successive data points (1973-Jan-31 to 1982-Feb-01, ending on line 753) are greater than 1 day apart in EPW file '/usr/local/bundle/bundler/gems/openstudio-standards-f448df66933d/openstudio-standards/data/weather/CAN_MB_Churchill.719130_CWEC.epw'. Data will be treated as typical (TMY)\n[openstudio.setFileExtension] <0> Path p, '/usr/local/bundle/bundler/gems/openstudio-standards-f448df66933d/openstudio-standards/data/weather/CAN_MB_Churchill.719130_CWEC.ddy', has an unexpected file extension. Was expecting 'idf'.\n[openstudio.model.YearDescription] <1> 'UseWeatherFile' is not yet a supported option for YearDescription\n[openstudio.model.YearDescription] <1> 'UseWeatherFile' is not yet a supported option for YearDescription\n[openstudio.setFileExtension] <0> Path p, '/usr/local/bundle/bundler/gems/openstudio-standards-f448df66933d/openstudio-standards/data/weather/CAN_MB_Churchill.719130_CWEC.ddy', has an unexpected file extension. Was expecting 'idf'.\n[openstudio.model.YearDescription] <1> 'UseWeatherFile' is not yet a supported option for YearDescription\n[openstudio.model.YearDescription] <1> 'UseWeatherFile' is not yet a supported option for YearDescription\n[openstudio.EpwFile] <0> Successive data points (1973-Jan-31 to 1982-Feb-01, ending on line 753) are greater than 1 day apart in EPW file '/usr/local/bundle/bundler/gems/openstudio-standards-f448df66933d/openstudio-standards/data/weather/CAN_MB_Churchill.719130_CWEC.epw'. Data will be treated as typical (TMY)\n[openstudio.setFileExtension] <0> Path p, '/usr/local/bundle/bundler/gems/openstudio-standards-f448df66933d/openstudio-standards/data/weather/CAN_MB_Churchill.719130_CWEC.ddy', has an unexpected file extension. Was expecting 'idf'.\n[openstudio.model.YearDescription] <1> 'UseWeatherFile' is not yet a supported option for YearDescription\n[openstudio.model.YearDescription] <1> 'UseWeatherFile' is not yet a supported option for YearDescription\n[openstudio.setFileExtension] <0> Path p, '/usr/local/bundle/bundler/gems/openstudio-standards-f448df66933d/openstudio-standards/data/weather/CAN_MB_Churchill.719130_CWEC.ddy', has an unexpected file extension. Was expecting 'idf'.\n[openstudio.model.YearDescription] <1> 'UseWeatherFile' is not yet a supported option for YearDescription\n[openstudio.model.YearDescription] <1> 'UseWeatherFile' is not yet a supported option for YearDescription\n[openstudio.EpwFile] <0> Successive data points (1973-Jan-31 to 1982-Feb-01, ending on line 753) are greater than 1 day apart in EPW file '/usr/local/bundle/bundler/gems/openstudio-standards-f448df66933d/openstudio-standards/data/weather/CAN_MB_Churchill.719130_CWEC.epw'. Data will be treated as typical (TMY)\n[openstudio.setFileExtension] <0> Path p, '/usr/local/bundle/bundler/gems/openstudio-standards-f448df66933d/openstudio-standards/data/weather/CAN_MB_Churchill.719130_CWEC.ddy', has an unexpected file extension. Was expecting 'idf'.\n[openstudio.model.YearDescription] <1> 'UseWeatherFile' is not yet a supported option for YearDescription\n[openstudio.model.YearDescription] <1> 'UseWeatherFile' is not yet a supported option for YearDescription\n[openstudio.setFileExtension] <0> Path p, '/usr/local/bundle/bundler/gems/openstudio-standards-f448df66933d/openstudio-standards/data/weather/CAN_MB_Churchill.719130_CWEC.ddy', has an unexpected file extension. Was expecting 'idf'.\n[openstudio.model.YearDescription] <1> 'UseWeatherFile' is not yet a supported option for YearDescription\n[openstudio.model.YearDescription] <1> 'UseWeatherFile' is not yet a supported option for YearDescription\n[openstudio.standards.Fan] <0> For Fan Constant Volume 1, there is no greater nominal HP.  Use the efficiency of the largest motor category.\n[openstudio.standards.Fan] <0> For Fan Constant Volume 2, there is no greater nominal HP.  Use the efficiency of the largest motor category.\n[openstudio.standards.Fan] <0> For Fan Constant Volume 3, there is no greater nominal HP.  Use the efficiency of the largest motor category.\n",
            "step_errors" : [],
            "step_files" : [],
            "step_info" : [
               "Started adding geometry",
               "Finished adding geometry",
               "Started adding weather file for climate zone: NECB HDD Method.",
               "Template =",
               "Setting Zone3 Bulk Storage to Space Function.Warehouse - med/blk",
               "Setting Zone2 Fine Storage to Space Function.Warehouse - fine",
               "Setting Zone1 Office to Space Function.Office - enclosed",
               "Started applying space types (loads)",
               "Space Function Office - enclosed had no people, one has been created.",
               "Space Function Office - enclosed set occupancy to 4.65 people/1000 ft^2.",
               "Space Function Office - enclosed had no lights, one has been created.",
               "Space Function Office - enclosed set LPD to 1.105536975 W/ft^2.",
               "Space Function Office - enclosed had no electric equipment, one has been created.",
               "Space Function Office - enclosed set electric EPD to 0.696767001 W/ft^2.",
               "Space Function Office - enclosed had no ventilation specification, one has been created.",
               "Space Function Office - enclosed set ventilation per area to 0.085 cfm/ft^2.",
               "Space Function Office - enclosed had no infiltration objects, one has been created.",
               "Space Function Office - enclosed set infiltration to 0.0 per ft^2 exterior surface area.",
               "Space Function Office - enclosed set occupancy schedule to NECB-A-Occupancy.",
               "Space Function Office - enclosed set occupant activity schedule to NECB-Activity.",
               "Space Function Office - enclosed set lighting schedule to NECB-A-Lighting.",
               "Space Function Office - enclosed set electric equipment schedule to NECB-A-Electric-Equipment.",
               "Space Function Office - enclosed set infiltration schedule to Always On.",
               "Space Function Office - enclosed set heating setpoint schedule to NECB-A-Thermostat Setpoint-Heating.",
               "Space Function Office - enclosed set cooling setpoint schedule to NECB-A-Thermostat Setpoint-Cooling.",
               "Space Function Warehouse - fine had no people, one has been created.",
               "Space Function Warehouse - fine set occupancy to 1.86 people/1000 ft^2.",
               "Space Function Warehouse - fine had no lights, one has been created.",
               "Space Function Warehouse - fine set LPD to 0.947603122 W/ft^2.",
               "Space Function Warehouse - fine had no electric equipment, one has been created.",
               "Space Function Warehouse - fine set electric EPD to 0.092902267 W/ft^2.",
               "Space Function Warehouse - fine had no ventilation specification, one has been created.",
               "Space Function Warehouse - fine set ventilation per area to 0.06 cfm/ft^2.",
               "Space Function Warehouse - fine had no infiltration objects, one has been created.",
               "Space Function Warehouse - fine set infiltration to 0.0 per ft^2 exterior surface area.",
               "Space Function Warehouse - fine set occupancy schedule to NECB-A-Occupancy.",
               "Space Function Warehouse - fine set occupant activity schedule to NECB-Activity.",
               "Space Function Warehouse - fine set lighting schedule to NECB-A-Lighting.",
               "Space Function Warehouse - fine set electric equipment schedule to NECB-A-Electric-Equipment.",
               "Space Function Warehouse - fine set infiltration schedule to Always On.",
               "Space Function Warehouse - fine set heating setpoint schedule to NECB-A-Thermostat Setpoint-Heating.",
               "Space Function Warehouse - fine set cooling setpoint schedule to NECB-A-Thermostat Setpoint-Cooling.",
               "Space Function Warehouse - med/blk had no people, one has been created.",
               "Space Function Warehouse - med/blk set occupancy to 0.93 people/1000 ft^2.",
               "Space Function Warehouse - med/blk had no lights, one has been created.",
               "Space Function Warehouse - med/blk set LPD to 0.594574508 W/ft^2.",
               "Space Function Warehouse - med/blk had no electric equipment, one has been created.",
               "Space Function Warehouse - med/blk set electric EPD to 0.092902267 W/ft^2.",
               "Space Function Warehouse - med/blk had no ventilation specification, one has been created.",
               "Space Function Warehouse - med/blk set ventilation per area to 0.06 cfm/ft^2.",
               "Space Function Warehouse - med/blk had no infiltration objects, one has been created.",
               "Space Function Warehouse - med/blk set infiltration to 0.0 per ft^2 exterior surface area.",
               "Space Function Warehouse - med/blk set occupancy schedule to NECB-A-Occupancy.",
               "Space Function Warehouse - med/blk set occupant activity schedule to NECB-Activity.",
               "Space Function Warehouse - med/blk set lighting schedule to NECB-A-Lighting.",
               "Space Function Warehouse - med/blk set electric equipment schedule to NECB-A-Electric-Equipment.",
               "Space Function Warehouse - med/blk set infiltration schedule to Always On.",
               "Space Function Warehouse - med/blk set heating setpoint schedule to NECB-A-Thermostat Setpoint-Heating.",
               "Space Function Warehouse - med/blk set cooling setpoint schedule to NECB-A-Thermostat Setpoint-Cooling.",
               "Finished applying space types (loads)",
               "Started applying constructions",
               "Adding construction set: NECB 2011-NECB HDD Method-Warehouse--is_residentialNo",
               "Adding construction Typical Insulated Exterior Mass Floor R-15.63.",
               "Adding construction Typical Insulated Exterior Mass Wall R-12.5.",
               "Adding construction Typical Insulated Metal Building Roof R-20.41.",
               "Adding construction Typical Interior Floor.",
               "Adding construction Typical Interior Wall.",
               "Adding construction Typical Interior Ceiling.",
               "Adding construction Typical Insulated Carpeted 6in Slab Floor.",
               "Adding construction U 0.55 SHGC 0.31 Dbl Ref-D Tint 6mm/6mm Air.",
               "Adding construction Typical Insulated Metal Door R-1.43.",
               "Adding construction U 0.35 SHGC 0.35 Dbl LoE (e2-.1) Tint 6mm/13mm Air.",
               "Adding construction Typical Overhead Door R-2.0.",
               "Adding construction U 0.48 SHGC 0.40 Dbl Ref-D Clr 6mm/13mm.",
               "Adding construction Typical Interior Window.",
               "Adding construction Typical Interior Door.",
               "Adding construction Typical Interior Partition.",
               "Finished applying constructions",
               "WWR NonRes = 0%; window = 0 ft2, wall = 0 ft2.",
               "WWR Res = 0%; window = 0 ft2, wall = 0 ft2.",
               "WWR Semiheated = 0%; window = 0 ft2, wall = 0 ft2.",
               "The skylight to roof ratios (SRRs) are: NonRes: 2%, Res: 0%.",
               "Started creating thermal zones",
               "Finished creating thermal zones",
               "Running simulation /mnt/openstudio/analysis_4fef0e0f-5396-4c55-a6e1-2cd6803db3ab/data_point_f406c13f-b779-4bf3-814b-74b260e11cf7/run/000_create_prototype_building/output/Warehouse-NECB 2011-NECB HDD Method-CAN_MB_Churchill.719130_CWEC.epw/SR0.",
               "Finished run.",
               "Started Adding HVAC",
               "Finished adding HVAC",
               "Started Adding Service Water Heating",
               "Adding service water loop.",
               "Adding water heater.",
               "Template =",
               "Finished adding Service Water Heating",
               "Set sizing factors to 1.3 for heating and 1.3 for cooling.",
               "Running simulation /mnt/openstudio/analysis_4fef0e0f-5396-4c55-a6e1-2cd6803db3ab/data_point_f406c13f-b779-4bf3-814b-74b260e11cf7/run/000_create_prototype_building/output/Warehouse-NECB 2011-NECB HDD Method-CAN_MB_Churchill.719130_CWEC.epw/SR1.",
               "Finished run.",
               "Started applying multizone vav OA sizing.",
               "Finished applying multizone vav OA sizing.",
               "Started applying prototype HVAC assumptions.",
               "For Fan Constant Volume 1: allowed_hp = 1.01HP; motor eff = 61.5%; total fan eff = 40% based on 1152 cfm.",
               "For Fan Constant Volume 2: allowed_hp = 11.72HP; motor eff = 61.5%; total fan eff = 40% based on 17129 cfm.",
               "For Fan Constant Volume 3: allowed_hp = 4.38HP; motor eff = 61.5%; total fan eff = 40% based on 6399 cfm.",
               "Sp-Zone3 Bulk Storage Sys-4 Flr-1 Sch-A HPlcmt-east ZN NECB System 4 PSZ requires an economizer because the total cooling capacity of 456620 Btu/hr exceeds the minimum capacity of 68243 Btu/hr.",
               "Sp-Zone1 Office Sys-3 Flr-1 Sch-A HPlcmt-south ZN NECB System 3 PSZ does not require an economizer because the total cooling capacity of 30697 Btu/hr is less than the minimum capacity of 68243 Btu/hr.",
               "Sp-Zone2 Fine Storage Sys-4 Flr-1 Sch-A HPlcmt-south ZN NECB System 4 PSZ requires an economizer because the total cooling capacity of 170568 Btu/hr exceeds the minimum capacity of 68243 Btu/hr.",
               "Finished applying prototype HVAC assumptions.",
               "Started applying HVAC efficiency standards.",
               "For Sp-Zone1 Office Sys-3 Flr-1 Sch-A HPlcmt-south ZN NECB System 3 PSZ, ERV not required based on 0% OA flow, design supply air flow of 1152cfm, and climate zone NECB HDD Method.",
               "For Sp-Zone1 Office Sys-3 Flr-1 Sch-A HPlcmt-south ZN NECB System 3 PSZ, ERV not required based on exhaust heat content.",
               "For NECB 2011 NECB HDD Method:  Sp-Zone1 Office Sys-3 Flr-1 Sch-A HPlcmt-south ZN NECB System 3 PSZ: DCV is not required for any system.",
               "For Sp-Zone1 Office Sys-3 Flr-1 Sch-A HPlcmt-south ZN NECB System 3 PSZ: Annual occupied hours = 2860 hr/yr, assuming a 0.15 occupancy threshold.  This schedule will be used as the HVAC operation schedule.",
               "For Sp-Zone1 Office Sys-3 Flr-1 Sch-A HPlcmt-south ZN NECB System 3 PSZ: Setting motorized OA damper schedule to Sp-Zone1 Office Sys-3 Flr-1 Sch-A HPlcmt-south ZN NECB System 3 PSZ Occ Sch.",
               "For Sp-Zone2 Fine Storage Sys-4 Flr-1 Sch-A HPlcmt-south ZN NECB System 4 PSZ, ERV not required based on 0% OA flow, design supply air flow of 6399cfm, and climate zone NECB HDD Method.",
               "For Sp-Zone2 Fine Storage Sys-4 Flr-1 Sch-A HPlcmt-south ZN NECB System 4 PSZ, ERV not required based on exhaust heat content.",
               "For NECB 2011 NECB HDD Method:  Sp-Zone2 Fine Storage Sys-4 Flr-1 Sch-A HPlcmt-south ZN NECB System 4 PSZ: DCV is not required for any system.",
               "For Sp-Zone2 Fine Storage Sys-4 Flr-1 Sch-A HPlcmt-south ZN NECB System 4 PSZ: Annual occupied hours = 2860 hr/yr, assuming a 0.15 occupancy threshold.  This schedule will be used as the HVAC operation schedule.",
               "For Sp-Zone2 Fine Storage Sys-4 Flr-1 Sch-A HPlcmt-south ZN NECB System 4 PSZ: Because the system has an economizer, it requires a motorized OA damper.",
               "For Sp-Zone2 Fine Storage Sys-4 Flr-1 Sch-A HPlcmt-south ZN NECB System 4 PSZ: Setting motorized OA damper schedule to Sp-Zone2 Fine Storage Sys-4 Flr-1 Sch-A HPlcmt-south ZN NECB System 4 PSZ Occ Sch.",
               "For Sp-Zone3 Bulk Storage Sys-4 Flr-1 Sch-A HPlcmt-east ZN NECB System 4 PSZ, ERV not required based on 0% OA flow, design supply air flow of 17129cfm, and climate zone NECB HDD Method.",
               "For Sp-Zone3 Bulk Storage Sys-4 Flr-1 Sch-A HPlcmt-east ZN NECB System 4 PSZ, ERV not required based on exhaust heat content.",
               "For NECB 2011 NECB HDD Method:  Sp-Zone3 Bulk Storage Sys-4 Flr-1 Sch-A HPlcmt-east ZN NECB System 4 PSZ: DCV is not required for any system.",
               "For Sp-Zone3 Bulk Storage Sys-4 Flr-1 Sch-A HPlcmt-east ZN NECB System 4 PSZ: Annual occupied hours = 2860 hr/yr, assuming a 0.15 occupancy threshold.  This schedule will be used as the HVAC operation schedule.",
               "For Sp-Zone3 Bulk Storage Sys-4 Flr-1 Sch-A HPlcmt-east ZN NECB System 4 PSZ: Because the system has an economizer, it requires a motorized OA damper.",
               "For Sp-Zone3 Bulk Storage Sys-4 Flr-1 Sch-A HPlcmt-east ZN NECB System 4 PSZ: Setting motorized OA damper schedule to Sp-Zone3 Bulk Storage Sys-4 Flr-1 Sch-A HPlcmt-east ZN NECB System 4 PSZ Occ Sch.",
               "For Fan Constant Volume 1: motor nameplate = 0.7173078248624524HP, motor eff = 61.5%.",
               "For Fan Constant Volume 2: motor nameplate = 11HP, motor eff = 61.5%.",
               "For Fan Constant Volume 3: motor nameplate = 4HP, motor eff = 61.5%.",
               "For Service Water Loop Pump: brake hp = 0.0HP, motor nameplate = 0.1HP, motor eff = 70.0%.",
               "For NECB 2011: Coil Cooling DX Single Speed 1: AirCooled Electric Resistance or None Single Package Capacity = 31kBtu/hr; SEER = 14.0",
               "For NECB 2011: Coil Cooling DX Single Speed 2: AirCooled Electric Resistance or None Single Package Capacity = 457kBtu/hr; EER = 8.39",
               "For NECB 2011: Coil Cooling DX Single Speed 3: AirCooled Electric Resistance or None Single Package Capacity = 171kBtu/hr; EER = 9.7",
               "For NECB 2011: 40.0gal Electricity Water Heater - 40kBtu/hr 1.0 Therm Eff; thermal efficiency = 1.0, skin-loss UA = 3Btu/hr",
               "Finished applying HVAC efficiency standards.",
               "Started adding daylighting controls.",
               "Finished adding daylighting controls.",
               "Total Time = 49sec."
            ],
            "step_result" : "Success",
            "step_values" : [
               {
                  "name" : "building_type",
                  "value" : "Warehouse"
               },
               {
                  "name" : "template",
                  "value" : "NECB 2011"
               },
               {
                  "name" : "climate_zone",
                  "value" : "NECB HDD Method"
               },
               {
                  "name" : "epw_file",
                  "value" : "CAN_MB_Churchill.719130_CWEC.epw"
               }
            ],
            "step_warnings" : [
               "[openstudio.EpwFile] Successive data points (1973-Jan-31 to 1982-Feb-01, ending on line 753) are greater than 1 day apart in EPW file '/usr/local/bundle/bundler/gems/openstudio-standards-f448df66933d/openstudio-standards/data/weather/CAN_MB_Churchill.719130_CWEC.epw'. Data will be treated as typical (TMY)",
               "[openstudio.EpwFile] Successive data points (1973-Jan-31 to 1982-Feb-01, ending on line 753) are greater than 1 day apart in EPW file '/usr/local/bundle/bundler/gems/openstudio-standards-f448df66933d/openstudio-standards/data/weather/CAN_MB_Churchill.719130_CWEC.epw'. Data will be treated as typical (TMY)",
               "[openstudio.weather.Model] Could not find ground temperatures; will use generic temperatures, which will skew results.",
               "[openstudio.EpwFile] Successive data points (1973-Jan-31 to 1982-Feb-01, ending on line 753) are greater than 1 day apart in EPW file '/usr/local/bundle/bundler/gems/openstudio-standards-f448df66933d/openstudio-standards/data/weather/CAN_MB_Churchill.719130_CWEC.epw'. Data will be treated as typical (TMY)",
               "[openstudio.EpwFile] Successive data points (1973-Jan-31 to 1982-Feb-01, ending on line 753) are greater than 1 day apart in EPW file '/usr/local/bundle/bundler/gems/openstudio-standards-f448df66933d/openstudio-standards/data/weather/CAN_MB_Churchill.719130_CWEC.epw'. Data will be treated as typical (TMY)",
               "[openstudio.standards.Fan] For Fan Constant Volume 1, there is no greater nominal HP.  Use the efficiency of the largest motor category.",
               "[openstudio.standards.Fan] For Fan Constant Volume 2, there is no greater nominal HP.  Use the efficiency of the largest motor category.",
               "[openstudio.standards.Fan] For Fan Constant Volume 3, there is no greater nominal HP.  Use the efficiency of the largest motor category.",
               "[openstudio.EpwFile] Successive data points (1973-Jan-31 to 1982-Feb-01, ending on line 753) are greater than 1 day apart in EPW file '/usr/local/bundle/bundler/gems/openstudio-standards-f448df66933d/openstudio-standards/data/weather/CAN_MB_Churchill.719130_CWEC.epw'. Data will be treated as typical (TMY)",
               "[openstudio.EpwFile] Successive data points (1973-Jan-31 to 1982-Feb-01, ending on line 753) are greater than 1 day apart in EPW file '/usr/local/bundle/bundler/gems/openstudio-standards-f448df66933d/openstudio-standards/data/weather/CAN_MB_Churchill.719130_CWEC.epw'. Data will be treated as typical (TMY)",
               "[openstudio.EpwFile] Successive data points (1973-Jan-31 to 1982-Feb-01, ending on line 753) are greater than 1 day apart in EPW file '/usr/local/bundle/bundler/gems/openstudio-standards-f448df66933d/openstudio-standards/data/weather/CAN_MB_Churchill.719130_CWEC.epw'. Data will be treated as typical (TMY)",
               "[openstudio.standards.Fan] For Fan Constant Volume 1, there is no greater nominal HP.  Use the efficiency of the largest motor category.",
               "[openstudio.standards.Fan] For Fan Constant Volume 2, there is no greater nominal HP.  Use the efficiency of the largest motor category.",
               "[openstudio.standards.Fan] For Fan Constant Volume 3, there is no greater nominal HP.  Use the efficiency of the largest motor category."
            ]
         }
      },
      {
         "arguments" : {
            "__SKIP__" : false
         },
         "measure_dir_name" : "view_model",
         "name" : "view_model",
         "result" : {
            "completed_at" : "20170710T184849Z",
            "measure_class_name" : "ViewModel",
            "measure_display_name" : "ViewModel",
            "measure_name" : "view_model",
            "measure_taxonomy" : "Reporting.QAQC",
            "measure_type" : "ModelMeasure",
            "measure_uid" : "f4669f10-fda5-489d-8e1c-7ca3c2d40378",
            "measure_version_id" : "f4975c5f-7c25-42a2-927b-02d99b4427ef",
            "measure_version_modified" : "20170526T150340Z",
            "measure_xml_checksum" : "1E1F8B97",
            "started_at" : "20170710T184849Z",
            "stderr" : "",
            "stdout" : "[OpenStudio.Measure] <0> OSArgumentVector is deprecated, use OpenStudio::Measure::OSArgumentVector instead.\n",
            "step_errors" : [],
            "step_files" : [
               "/mnt/openstudio/analysis_4fef0e0f-5396-4c55-a6e1-2cd6803db3ab/data_point_f406c13f-b779-4bf3-814b-74b260e11cf7/run/001_view_model/report.html",
               "/mnt/openstudio/analysis_4fef0e0f-5396-4c55-a6e1-2cd6803db3ab/data_point_f406c13f-b779-4bf3-814b-74b260e11cf7/run/001_view_model/report.json"
            ],
            "step_final_condition" : "Report written to <a href='file:////mnt/openstudio/analysis_4fef0e0f-5396-4c55-a6e1-2cd6803db3ab/data_point_f406c13f-b779-4bf3-814b-74b260e11cf7/run/001_view_model/report.html'>report.html</a>.",
            "step_info" : [ "No changes made to the model." ],
            "step_result" : "NA",
            "step_values" : [
               {
                  "name" : "view_model_html_zip",
[...]
yyJbjjzhhV7JreTvjubiReKWMLd2qrYYbX13TSNl6+Q2R1o7iRe+OKo75SkC/HeFYHXc8PxNIqtx5edaGpcRWHau+P+ZJoKjcso8NQ1llfnt9OTV73j3scpj2+iJHVTdsbTWeRnwm+5m/rh5MVW2fV6uZ2MY3+W/kv6nZfbnn/79WHpPnKxTIv53pE1FuF8kh2/64c8vrD3LJaflCPL85NZ4C4O/VC8D6d3GUTjzz9Zcr5MdHkILF3Msv3Fedm+dm/d5aele4otf0nP7YQdrd7FE/K7s9tJx/rhOWOX7YhX22R/VM6kJy90Of/rLVFftPKTvUfVHubvABuL5Ue88WnZ7W/tfVMlSg6Z0pBMaYdMaUSmtEumtEemtE+mdECmtPbyTUMpuii36cLcpotzmy7QbbpIt+lC3aaLdZsu2G26aHfoot0hXNPpot2hi3ZHM9qfN15SzIAx9zSESs6VnlDJmdITKjlPekIla4KeUMmKoCdUsh7oCZWsBnpCJWuBnlBZ4tNUIovtsrSnqUQW3WVJT1OJLL7LUp6mElmElyU8TSWyGC9Ld5pKdOs3WYyX5TpNJZ0Yf9b4QjHNid4YGkolp0lTqeQ0aSqVnCZNpZKlQFOpZCnQVCpZCjSVSpYCTaWSpUBTqSzf6UrRRXlZxtOVoovzspynK0UX6WVZT1eKLtbL8p6uFF20l2U+XSnCNZ0u2suSn65UZbTjZfR4GX0hpLAbXkb/bMPL6FWw8DJ6vIy+zoaX0YsNL6PHy+jzDS+jL/8mXkZfLSA2vIx+M97ZCBzgAAc4wAEOcIADHOAABzgbj/OdvcoRNKABDWhAAxrQgAY0oAENaDaH5vt6ZyNwgAMc4AAHOMABDnCAAxzgfFc437A52/E49W/9dPGO3/KAdf6D9mzfY3u24iJtRie2/Q3oxLbfWie2QX8wImnEZiQ0pBLaoRIaUQntUgntUQntUwkdUAmtPZdvpkQW2zZZcNtk0W2ThbdNFt82WYDbZBFuk4W4TRbjDlmMO3TrN1mMO2Qx7ujFuHrHtXWt+g3XTHTkZ6l+uzUTHfkqUL/ZmomOfAWo32rNREc++w0arRkJUUV0SXoz6LJmJEQV1CW5zaDFmpEQVVyXJDaD/mpGKyNVZJdkNYPmakZCVJFdktLqd1Zb1zForGYkJD9FBm3VjITkk9+gqZqRkHzyG7RUMxKST36ThmpmSmSxXZLZTLqpmSmRhXdJcjNppWamRBbhJfnNpI+a2VpJFuMlKc6kiZqZElmMl2Q5dFBDBzV0UHtGiA5qYkMHNXRQQwe1kg0d1NBBTeuo0EFtzV/j++ig9nRDB7XHrYEbtr6zRgPAAQ5wgAMc4AAHOMABDnCAs/E431n/AdCABjSgAQ1oQAMa0IAGNKDZHJq/Td8D4AAHOMABDnCAAxzgAAc4wKnv9w06qKFh2nfVMO1sPOXePDvL4nGohKfMHmxG27SDDWibdtBa27Td/KHQui1uqISGVEI7VEIjKqFdKqE9KqF9KqEDKqG1p+/NlMhi2yYLbpssum2y8LbJ4tsmC3CbLMJtshC3yWLcIYtxh279JotxhyzGHb0YV2+btq5Vv22aiY78LNVvm2aiI18F6rdNM9GRrwD126aZ6Mhnv0HbNCMhqoguSW8GbdOMhKiCuiS3GbRNMxKiiuuSxGbQNs1oZaSK7JKsZtA2zUiIKrJLUlr9tmnrOgZt04yE5KfIoG2akZB88hu0TTMSkk9+g7ZpRkLyyW/SNs1MiSy2SzKbSds0MyWy8C5JbiZt08yUyCK8JL+ZtE0zWyvJYrwkxZm0TTNTIovxkiyHtmlom4a2ac8I0TZNbGibhrZpaJtWsqFtGtqmaR0V2qat+Wt8H23Tnm5om/a4NXCX1nfWXQA4wAEOcIADHOAABzjAAQ5wNh7nO2s6ABrQgAY0oAENaEADGtCABjSbQ/O3aXYAHOAABzjAAQ5wgAMc4AAHOPX90Dat2NA27bFtmr0RbdOcwfffNi1jbKtt2qDvkHRNM9EZEunsEOmMiHR2iXT2iHT2iXQOiHTWHro3EqKKaJsqpG2qmLapgtqmimqbKqxtqri2qQLbpopshyqyHbK1miqyHarIdrQiW7092ppU/e5oBjLSM1S/N5qBjHTe1++MZiAjnfP1+6IZyEjnu0FXNBMdojiWpzGDlmgmOkShLM9hBv3QTHSIolmewAyaoZmsg0TxLM9eBp3QTHSI4lmeuuq3QVuTMeiCZqIjPT0GPdBMdKTT3aADmomOdLob9D8z0ZFOd5PuZ0ZCVBEtz2Amrc+MhKiCWp7ETPqeGQlRxbU8j5k0PTNaGakiW57KTDqeGQlRRbY8m6HdGdqdod3ZM0K0OxMb2p2h3RnanZVsaHeGdmdaR4V2Z2v+Gt9Hu7OnG9qdPW4N3F31nXUFAA5wgAMc4AAHOMABDnCAA5yNx/nOmgWABjSgAQ1oQAMa0IAGNKABzebQ/G2aFAAHOMABDnCAAxzgAAc4wAFOfT+0Oys2tDtbtTsbbka3M3sDup3ZLXY7G4yI2p0ZCA2phHaohEZUQrtUQntUQvtUQgdUQl88bW+iRBbbNllw22TRbZOFt00W3zZZgNtkEW6ThbhNFuMOWYw7dOs3WYw7ZDHu6MW4The0p1ombdDq68jPkkkjtPo68lXApBVafR35CmDSDK2+jnz2G7VDMxCiiuiS9GbUEc1AiCqoS3KbUVM0AyGquC5JbEZ90QxWRqrILslqRq3RDISoIrskpZl0R3uqY9QezUBIfoqMGqQZCMknv1GLNAMh+eQ3apJmICSf/GZt0kyUyGK7JLOZdUozUSIL75LkZtYszUSJLMJL8ptZvzSTtZIsxktSnFnLNBMlshgvyXLomoauaeia9owQXdPEhq5p6JqGrmklG7qmoWua1lGha9qav8b30TXt6YauaY9bAzdpfWfNBYADHOAABzjAAQ5wgAMc4ABn43G+s54DoAENaEADGtCABjSgAQ1oQLM5NH+bXgfAAQ5wgAMc4AAHOMABDnCAU98PXdOKDV3TVl3Tdjaja5qzAV3TnNa6pu3mz4TW7XBDJTSkEtqhEhpRCe1SCe1RCe1TCR1QCa09fG+mRBbbNllw22TRbZOFt00W3zZZgNtkEW6ThbhNFuMOWYw7dOs3WYw7ZDHu6MW4ete0da36XdNMdORnqX7XNBMd+SpQv2uaiY58BajfNc1ERz77DbqmGQlRRXRJejPommYkRBXUJbnNoGuakRBVXJckNoOuaUYrI1Vkl2Q1g65pRkJUkV2S0up3TVvXMeiaZiQkP0UGXdOMhOST36BrmpGQfPIbdE0zEpJPfpOuaWZKZLFdktlMuqaZKZGFd0lyM+maZqZEFuEl+c2ka5rZWkkW4yUpzqRrmpkSWYyXZDl0TUPXNHRNe0aIrmliQ9c0dE1D17SSDV3T0DVN66jQNW3NX+P76Jr2dEPXtMetgZu0vrPmAsABDnCAAxzgAAc4wAEOcICz8TjfWc8B0IAGNKABDWhAAxrQgAY0oNkcmr9NrwPgAAc4wAEOcIADHOAABzjAqe+HrmnFhq5pq65po83omjbcgK5pw9a6pg36DknTNBOdIZHODpHOiEhnl0hnj0hnn0jngEhn7Zl7IyGqiLapQtqmimmbKqhtqqi2qcLapoprmyqwbarIdqgi2yFbq6ki26GKbEcrstW7o61J1W+OZiAjPUP1W6MZyEjnff3GaAYy0jlfvy2agYx0vhs0RTPRIYpjeRoz6IhmokMUyvIcZtAOzUSHKJrlCcygF5rJOkgUz/LsZdAIzUSHKJ7lqat+F7Q1GYMmaCY60tNj0ALNREc63Q0aoJnoSKe7QfszEx3pdDdpfmYkRBXR8gxm0vnMSIgqqOVJzKTtmZEQVVzL85hJzzOjlZEqsuWpzKThmZEQVWTLsxm6naHbGbqdPSNEtzOxodsZup2h21nJhm5n6HamdVTodrbmr/F9dDt7uqHb2ePWwM1V31lTAOAABzjAAQ5wgAMc4AAHOMDZeJzvrFcAaEADGtCABjSgAQ1oQAMa0GwOzd+mRwFwgAMc4AAHOMABDnCAAxzg1PdDt7NiQ7ezVbez3c3odrazAd3OdlrsdjYYEbU7MxAaUgntUAmNqIR2qYT2qIT2qYQOqIS+eNreRIkstm2y4LbJotsmC2+bLL5tsgC3ySLcJgtxmyzGHbIYd+jWb7IYd8hi3NGLcZ0uaE+1TNqg1deRnyWTRmj1deSrgEkrtPo68hXApBlafR357Ddqh2YgRBXRJenNqCOagRBVUJfkNqOmaAZCVHFdktiM+qIZrIxUkV2S1YxaoxkIUUV2SUoz6Y72VMeoPZqBkPwUGTVIMxCST36jFmkGQvLJb9QkzUBIPvnN2qSZKJHFdklmM+uUZqJEFt4lyc2sWZqJElmEl+Q3s35pJmslWYyXpDizlmkmSmQxXpLl0DUNXdPQNe0ZIbqmiQ1d09A1DV3TSjZ0TUPXNK2jQte0NX+N76Nr2tMNXdMetwZu0vrOmgsABzjAAQ5wgAMc4AAHOMABzsbjfGc9B0ADGtCABjSgAQ1oQAMa0IBmc2j+Nr0OgAMc4AAHOMABDnCAAxzgAKe+H7qmFRu6pq26pu1tRte00QZ0TRu11jVtN38mtG6HGyqhIZXQDpXQiEpol0poj0pon0rogEpo7eF7MyWy2LbJgtsmi26bLLxtsvi2yQLcJotwmyzEbbIYd8hi3KFbv8li3CGLcUcvxtW7pq1r1e+aZqIjP0v1u6aZ6MhXgfpd00x05CtA/a5pJjry2W/QNc1IiCqiS9KbQdc0IyGqoC7JbQZd04yEqOK6JLEZdE0zWhmpIrskqxl0TTMSoorskpRWv2vauo5B1zQjIfkpMuiaZiQkn/wGXdOMhOST36BrmpGQfPKbdE0zUyKL7ZLMZtI1zUyJLLxLkptJ1zQzJbIIL8lvJl3TzNZKshgvSXEmXdPMlMhivCTLoWsauqaha9ozQnRNExu6pqFrGrqmlWzomoauaVpHha5pa/4a30fXtKcbuqY9bg3cpPWdNRcADnCAAxzgAAc4wAEOcIADnI3H+c56DoAGNKABDWhAAxrQgAY0oAHN5tD8bXodAAc4wAEOcIADHOAABzjAAU59P3RNKzZ0TVt1TdvfjK5puxvQNW23ta5pg75D0jTNRGdIpLNDpDMi0tkl0tkj0tkn0jkg0ll75t5IiCqibaqQtqli2qYKapsqqm2qsLap4tqmCmybKrIdqsh2yNZqqsh2qCLb0Yps9e5oa1L1m6MZyEjPUP3WaAYy0nlfvzGagYx0ztdvi2YgI53vBk3RTHSI4liexgw6opnoEIWyPIcZtEMz0SGKZnkCM+iFZrIOEsWzPHsZNEIz0SGKZ3nqqt8FbU3GoAmaiY709Bi0QDPRkU53gwZoJjrS6W7Q/sxERzrdTZqfGQlRRbQ8g5l0PjMSogpqeRIzaXtmJEQV1/I8ZtLzzGhlpIpseSozaXhmJEQV2fJshm5n6HaGbmfPCNHtTGzodoZuZ+h2VrKh2xm6nWkdFbqdrflrfB/dzp5u6Hb2uDVwc9V31hQAOMABDnCAAxzgAAc4wAEOcDYe5zvrFQAa0IAGNKABDWhAAxrQgAY0m0Pzt+lRABzgAAc4wAEOcIADHOAABzj1/dDtrNjQ7WzV7exgM7qd7W1At7O91rqd2TuD/uDJZu+QND8jlB02I7vTjOyoGdndZmT3mpHdb0b2oBnZtWf9KXUbmmd2QxPNbmim2Q1NNbuhuWY3NNnshmab3dB0sxuab05D881pKq81NN+chuabYzLf1LvKlSnXbzJHp6p6duu3oKNTVV3J6jeoo1NVXcXqt6+jU1VdwQya2xHKNjO7lMsFg054hLLNTDDlWsGgbR6hbDNzTLlQMOixR5gVmpllylWCQUM+QtlmZplyiVC/e1+ZqkEzP0JZ1VNr0OqPUFZ1ATNoBEgoq7qAGbQJJJRVXcBMmghS6jY0z5QrBZOOg5S6DU015WLBpD0hpW5Ds025XjDpZUiZJxqab8olg0njQ0rdhuabctWALonokoguic8I0SVRbOiSiC6J6JJYsqFLIrokah0VuiSu+Wt8H10Sn27okvi4NXBT5nfWTAQ4wAEOcIADHOAABzjAAQ5wNh7nO+sxAhrQgAY0oAENaEADGtCABjSbQ/O36W0CHOAABzjAAQ5wgAMc4AAHOPX9vkGXxI/8ZsZjN53HnHXebKFp4vfVNJHHt/6Ys/+4IvLeRdGMiQsm7nPeGbzZjAaK+xvQQHG/vQaK4u91OzUR6QyJdHaIdEZEOrtEOntEOvtEOgdEOusNBkyEqCLapgppmyqmbaqgtqmi2qYKa5sqrm2qwLapItuhimyHbK2mimyHKrIdrcjWaOz3VMqgk199GekZMujVV19GOu8NuvHVl5HOeYN+e/VlpPPdpKOegQ5RHMvTmEmTPAMdolCW5zCTvncGOkTRLE9gJq3sDNZBoniWZy+T7nQGOkTxLE9dBg3nnsqYdJgz0JGeHpMecgY60ulu0iXOQEc63U36wBnoSKe7Uac3EyGqiJZnMKPmbSZCVEEtT2JG/dhMhKjiWp7HjFqsmayMVJEtT2VGXdNMhKgiW57Nngn9HvtR7KcLZrMe65zNwy3Rkmq39//csDewe/nfX/Nxb2jL0txg7T/0jo93dg4OCCyc5i2GzVvsNG8xat5it3mLveYt9pu3OGjeYi2zN+XRwvy2W5jgdgsz3G5hitstzHG7hUlutzDL7Ramud3CPHdamOdOG3m8hXnutDDPnXrz3Mk93FTmMVArq4ZDx9nfJbCQXw0yC/nFILOQXwsyC/mSS2YhX3HJLOQLLpmFfL0ls5Avt2QWJWUVnUcL87ukrKLzaGGGl5RVdB4tzPGSsorOo4VZXlJW0Xm0MM9Lyio6jzbyeAvzvKSsovOoN8+HwuNN7Es8nAO1ssq29/aGQwIL+dUgs5BfDDIL+bUgs5AvuWQW8hWXzEK+4JJZyNdbMgv5vVFkFiU3BNJ5yO+oovOQ32xF5yG/D4vOQ36LFp2H/L5EOg/5LYt0HvK7Gek85Dc60nm0MM9Lyio6jzbyeAuJvKSsovOol8p3hMfH6Vzmsa9WVh1k2+gVgYX8apBZyC8GmYX8WpBZyMsqMgt5WUVmIS+ryCzkZRWZhXy5JbMoKavoPORlFZ2HvKyi85CXVXQe8rKKzkNeVtF5yMsqOg95WUXnIS+r6DxamOclZRWdRxt5vIVEXlJW0XnUS+Uj4fEf7sk89tTKqtevT0729ggs5FeDzEJ+Mcgs5NeCzEJeVpFZyMsqMgt5WUVmIS+ryCzkyy2ZRUlZRechL6voPORlFZ2HvKyi85CXVXQe8rKKzkNeVtF5yMsqOg95WUXn0cI8Lymr6DzayOMtJPKSsorOo14q381LtzmXeeyqlVUnJ7u7JBbyq0FmIb8YZBbya0FmIS+ryCzkZRWZhbysIrOQl1VkFvLllsyipKyi85CXVXQe8rKKzkNeVtF5yMsqOg95WUXnIS+r6DzkZRWdh7ysovNoYZ6XlFV0Hm3k8RYSeUlZRedRL5XvCY9fI9lt8c5Iraza33ec0YjAQn41yCzkF4PMQn4tyCzkZRWZhbysIrOQl1VkFvKyisyirO8UkUVpszUqj7JuVVQeZY2sqDzKelxReZS1v6LyKOv5RuVR1g6OyqOsUxyVR1kTOSqPFuZ5SVlF59FGHm8hkZeUVXQe1an8k0qH16InMztiIb9bNZDN+8Z2kttJN+8AW9kqdtXYOeHpq2geeklnNOgy2x512VD8zRmptZu9zzAem1J73omb8kkUL47v/WTZFvnx+BW6R2cC72OPxx/mokux8o6CY7HO8St3k3nMlxii0XJx3htuz41hDGMYwxjGMIYxjGEMYxjDGMYwhjGMYQxjGMMYxjCGMYxhDGMYwxjGMIYxjGEMYxjDGMYwhjGMYQxjGMMYxjCGMYxhDGMYwxjGMIYxjOH/U8OLfnTL49j3+K+ueLDW7g8Mn1cVj8Ym64/GnvHY50nxeK3VXT1APAuitB/4Ia98RDb52nO61U/WJv381fOzKHBTPwozKCtJ+ax3ya+imFtqTz6/4xMeeusHtPysszvosqF4cnkgHmQWf1gBv0oFWIX0SrZ/MeHpaZiK85NZXM3DcU7a2WJ/VkisCPnj3ueVz3KLzb9inXTqJ/0kvypqRmJ7slM/O3+n7nja+QtYV22FLx4dz9gL3YtZlPhC8HX2scrRrDYh8xWqOLrTQ1ph+aHHxXzo2V3NvVfbdd0dr3weiHjrFOd0OU8mcTSfcY/9+CP7R/H5ff9i6ibF8+9igm09HV18dTQ7IX13MnkjPPoBDyfplL1kDvs3s46DwGKH699IAn/MOz1763zwaatyvj07kihmnevsUAY/sevMpgjVwld89s9sxdG/QGITYVzonV9/6n/mC3Z0dLQ8efUUc9Xisl/rHupqu4y5+7nOzg+a++h+X5yv4uiORFiLYCgiJW/k0L9wk8SfhNw7ES0ikvP8TH6qdypXF3o2T6adutciu6SHy+tZfyYFwaHKUfbFN+u6JGkcfeZqPsvv1nWKZu7YTxdqVsWXax9VbrGyqquyWkjWl5U600N78RHbajqvLzysx2xdNZ3pps760M2zqtL3H6pqCrFtb7Pf//jI/vv+jw/s7P2Hj7/89jN79/7nX07Y29MPp2oCb7JVm9+7okRjacSSKE5ZOL/J4mDM8pYmCXOTcVa8+OFEQXF17oXOk8zsdtml+uIS83Qeh2zmxgl/E0Ru2nHFkr+VXconn13mnymdzOoS7YltcQhVwg/Ndnp5rD/z6Z5P9s4Lj1+58yBlszjK1jD+oste/LC/f3Jyevqi4cYzwAEOcIADHOAABzjAAQ5wgPN/E4cl85vsP4GZx8WHzHMXgijmHmhAAxrQgAY0oAENaEADGtCAppzmLr816wuay2DOgQMc4AAHOMABDnCAAxzgAAc4dXAe3xtoi/cGns1l7w0c2vkvbMfHOzsHByAFKUhBClKQghSkIAUpSEEKUpCCdDNInZzUTWWkg5x0OHSc/V2QghSkIAUpSEEKUpCCFKQgBSlIQboZpENB+ib2JaTOQU5q23t7wyFIQQpSkIIUpCAFKUhBClKQghSkIN0M0h1B+nE6l5Hu56QH2TZ6BVKQghSkIAUpSEEKUpCCFKQgBSlIN4N0JEj/wz0Z6V5O+vr1ycneHkhBClKQghSkIAUpSEEKUpCCFKQg3QzS3fxfJuZcRrqbk56c7O6CFKQgBSlIQQpSkIIUpCAFKUhBCtJNId0TpL9Gss6Czign3d93nNEIpCAFKUhBClKQghSkIAUpSEEKUpC2RrpC8WL3rlMpdt9P/TTgZ1N3xvspv087L95G8zipxlg83/O1f8PDxI/CgCe5QoXE9jY79jzmslyJ3fnplCXRDWfesGLP5HbSd2czHnodS3hbWxU7rLa+m6Zxx7q3umx3oLnTItvJUd8pSRcBX+L13HA8jeJsfyvgVxq0hcZVFKa9O+5PpqnQuIwCT11jeW3OZr3/RSG32furK3/M2dki6Q3ZmyDu2exsPO0ds7e/B+ObtJdE8+wy/O839tvpySvxtZTfsCH7/ex/7P14LL77Yqvswr7cTsaxP0v/Jf3Oy23Pv/36sHQfuVimxXzvyBqLqD/JTpTrhzy+cA4slp+9I8vzk1ngLg79MMiGepdBNP78kyXny0SXh8DSxSzbX5zA7Wv31l1+Wrqn2G7dWAQoO2KefzMLeD/kd2e3k471w3PGLtsZDPI/KieckPXc1M10z/+0AveSB9ah5fErdx6kbBZHV37Are5y5OLeOrT7g6516wZzXvx9LNalbJ9sqTk5OT21HrpKOg6RzpBIZ4dIZ0Sks0uks0eks0+kc0CkYw+ohKgi2qYKaZsqpm2qoLapotqmCmubKq5tqsC2qSLboYpsh2ytpopshyqyHa3IZsn85mbtRdVKGS3mnoaM9BzpyUjPkJ6M9PzoyUjnvZ6MdNbryUjnvJ6MdMbryUjnu56MPJFp6hDFsTyNaeoQRbI8iWnqEMWyPIVp6hBFszyBaeoQxbM8fWnqUK3LRPEsz12aOurxfOeHqX7auhQfqetIT4+mjvT0aOpIT4+mjnS6a+pIp7umjnS6a+pIp7umjnS6a+rI85euEFVEyzOYrhBVTMtzmK4QVVTLs5iuEFVcy/OYrhBVZMszma4Q2VpNFdnyZKYrpB7Zj79cVL5ZWJbmBmv/obd89TCBhdO8xbB5i53mLUbNW+w2b7HXvMV+8xYHzVusZfamPFqY33YLE9xuYYbbLUxxu4U5brcwye0WZrndwjS3W5jnTgvz3Gkjj7cwz50W5rlTb55XvsBRraxavuGRwEJ+Ncgs5BeDzEJ+Lcgs5EsumYV8xSWzkC+4ZBby9ZbMQr7cklmUlFV0Hi3M75Kyis6jhRleUlbRebQwx0vKKjqPFmZ5SVlF59HCPC8pq+g82sjjLczzkrKKzqPePK98T5ZaWbV8kRaBhfxqkFnILwaZhfxakFnIl1wyC/mKS2YhX3DJLOTrLZmF/N4oMouSGwLpPOR3VNF5yG+2ovOQ34dF5yG/RYvOQ35fIp2H/JZFOg/53Yx0HvIbHek8WpjnJWUVnUcbebyFRF5SVtF51Evlla8jUSurlu8rIbCQXw0yC/nFILOQXwsyC3lZRWYhL6vILORlFZmFvKwis5Avt2QWJWUVnYe8rKLzkJdVdB7ysorOQ15W0XnIyyo6D3lZRechL6voPORlFZ1HC/O8pKyi82gjj7eQyEvKKjqPeqm8suu7Wlm1bAtPYCG/GmQW8otBZiG/FmQW8rKKzEJeVpFZyMsqMgt5WUVmIV9uySxKyio6D3lZRechL6voPORlFZ2HvKyi85CXVXQe8rKKzkNeVtF5yMsqOo8W5nlJWUXn0UYebyGRl5RVdB71Unllc121smrZfZfAQn41yCzkF4PMQn4tyCzkZRWZhbysIrOQl1VkFvKyisxCvtySWZSUVXQe8rKKzkNeVtF5yMsqOg95WUXnIS+r6DzkZRWdh7ysovOQl1V0Hi3M85Kyis6jjTzeQiIvKavoPOql8soehmpl1bLJIYGF/GqQWcgvBpmF/FqQWcjLKjILeVlFZiEvq8gs5GUVmUVZ3ykii9Jma1QeZd2qqDzKGllReZT1uKLyKGt/ReVR1vONyqOsHRyVR1mnOCqPsiZyVB4tzPOSsorOo4083kIiLymr6DyqU/knlQ6vRftmdsRCfrdqIJv3je0kt5Nu3gG2slXsqgd0wtNX0Tz0ks5o0GW2PeqyofibM1JrN3ufYTy2tva8EzflkyheHN/7ybKH8uPxKzSazgTexx6PP8xFS2PlHQXHYp3jV+4m85gvMURX5uK8N9zkG8MYxjCGMYxhDGMYwxjGMIYxjGEMYxjDGMYwhjGMYQxjGMMYxjCGMYxhDGMYwxjGMIYxjGEMYxjDGMYwhjGMYQxjGMMYxjCGMYxhDGMYw/+nhhf96JbHse/xX13xYK3dHxg+ryoejU3WH40947HPk+LxWqu7eoB4FkRpP/BDXvmIbPK153Srn6xN+vmr52dR4KZ+FGZQVpLyWe+SX0Uxt9SefH7HJzz01g9o+Vlnd9BlQ/Hk8kA8yCz+sAJ+lQqwCumVbP9iwtPTMBXnJ7O4mofjnLSzxf6skFgR8se9zyuf5Rabf8U66dRP+kl+VdSMxPZkp352/k7d8bTzF7Cu2gpfPDqesRe6F7Mo8YXg6+xjlaNZbULmK1RxdKeHtMLyQ4+L+dCzu5p7r7brujte+TwQ8dYpzulynkziaD7jHvvxR/aP4vP7/sXUTYrn38UE23o6uvjqaHZC+u5k8kZ49AMeTtIpe8kc9m9mHQeBxQ7Xv5EE/ph3evbW+eDTVuV8e3YkUcw619mhDH5i15lNEaqFr/jsn9mKo3+BxCbCuNA7v/7U/8wX7OjoaHny6inmqsVlv9Y91NV2GXP3c52dHzT30f2+OF/F0R2JsBbBUERK3sihf+EmiT8JuXciWkQk5/mZ/FTvVK4u9GyeTDt1r0V2SQ+X17P+TAqCQ5Wj7Itv1nVJ0jj6zNV8lt+t6xTN3LGfLtSsii/XPqrcYmVVV2W1kKwvK3Wmh/biI7bVdF5feFiP2bpqOtNNnfWhm2dVpe8/VNUUYtveZr//8ZH99/0fH9jZ+w8ff/ntZ/bu/c+/nLC3px9O1QTeZKs2v3dFicbSiCVRnLJwfpPFwZjlLU0S5ibjrHjxw4mC4urcC50nmdntskv1xSXm6TwO2cyNE/4miNy044olfyu7lE8+u8w/UzqZ1SXaE9viEKqEH5rt9PJYf+bTPZ/snRcev3LnQcpmcZStYfxFl734YX//5OT09EXDjWeAAxzgAAc4wAEOcIADHOAA5/8mDkvmN9l/AjOPiw+Z5y4EUcw90IAGNKABDWhAAxrQgAY0oAFNOc1dfmvWFzSXwZwDBzjAAQ5wgAMc4AAHOMABDnDq4Dy+N9AW7w08m8veGzi081/Yjo93dg4OQApSkIIUpCAFKUhBClKQghSkIAXpZpA6OambykgHOelw6Dj7uyAFKUhBClKQghSkIAUpSEEKUpCCdDNIh4L0TexLSJ2DnNS29/aGQ5CCFKQgBSlIQQpSkIIUpCAFKUhBuhmkO4L043QuI93PSQ+ybfQKpCAFKUhBClKQghSkIAUpSEEKUpBuBulIkP6HezLSvZz09euTk709kIIUpCAFKUhBClKQghSkIAUpSEG6GaS7+b9MzLmMdDcnPTnZ3QUpSEEKUpCCFKQgBSlIQQpSkIIUpJtCuidIf41knQWdUU66v+84oxFIQQpSkIIUpCAFKUhBClKQghSkIG2NdIXixe5dp1Lsvp/6acDPpu6M91N+n3ZevI3mcVKNsXi+52v/hoeJH4UBT3KFContbXbsecxluRK789MpS6IbzrxhxZ7J7aTvzmY89DqW8La2KnZYbX03TeOOdW912e5Ac6dFtpOjvlOSLgK+xOu54Xgaxdn+VsCvNGgLjasoTHt33J9MU6FxGQWeusby2pzNev+LQu6wN37I2Vkaxe4k+99F0tthb4K4Z7Oz8bR3zN7+Hoxv0l4SzbOL8b/f2G+nJ6/E11J+w3bY72f/Y+/HY/HdF1tll/fldjKO/Vn6L+l3Xm57/u3Xh6X7yMUyLeZ7R9ZYxP5Jdrrc7DDji+HAYvk5PLI8P5kF7uLQD4NsqHcZROPPP1lyvkx0eQgsXcyy/cVp3L52b93lp6V7iu3WjUWYsiPm+TezgPdDfnd2O+lYPzxn7LKdwSD/o3LaCVnPTd1M9/xPK3AveWAdWh6/cudBymZxdOUH3OouRy7urUO7P+hat24w58Xfx2J1yvbJFpyTk9NT66GrpOMQ6QyJdHaIdEZEOrtEOntEOvtEOgdEOvaASogqom2qkLapYtqmCmqbKqptqrC2qeLapgpsmyqyHarIdsjWaqrIdqgi29GKbJbMb27WXletlNFi7mnISM+Rnoz0DOnJSM+Pnox03uvJSGe9nox0zuvJSGe8nox0vuvJyBOZpg5RHMvTmKYOUSTLk5imDlEsy1OYpg5RNMsTmKYOUTzL05emDtW6TBTP8tylqaMez3d+mOqnrUvxkbqO9PRo6khPj6aO9PRo6kinu6aOdLpr6kinu6aOdLpr6kinu6aOPH/pClFFtDyD6QpRxbQ8h+kKUUW1PIvpClHFtTyP6QpRRbY8k+kKka3VVJEtT2a6QuqR/fj7ReX7hWVpbrD2H3rLFxATWDjNWwybt9hp3mLUvMVu8xZ7zVvsN29x0LzFWmZvyqOF+W23MMHtFma43cIUt1uY43YLk9xuYZbbLUxzu4V57rQwz5028ngL89xpYZ479eZ55Wsc1cqq5XseCSzkV4PMQn4xyCzk14LMQr7kklnIV1wyC/mCS2YhX2/JLOTLLZlFSVlF59HC/C4pq+g8WpjhJWUVnUcLc7ykrKLzaGGWl5RVdB4tzPOSsorOo4083sI8Lymr6DzqzfPKt2WplVXL12kRWMivBpmF/GKQWcivBZmFfMkls5CvuGQW8gWXzEK+3pJZyO+NIrMouSGQzkN+RxWdh/xmKzoP+X1YdB7yW7ToPOT3JdJ5yG9ZpPOQ381I5yG/0ZHOo4V5XlJW0Xm0kcdbSOQlZRWdR71UXvlSErWyavnWEgIL+dUgs5BfDDIL+bUgs5CXVWQW8rKKzEJeVpFZyMsqMgv5cktmUVJW0XnIyyo6D3lZRechL6voPORlFZ2HvKyi85CXVXQe8rKKzkNeVtF5tDDPS8oqOo828ngLibykrKLzqJfKK3u/q5VVy+bwBBbyq0FmIb8YZBbya0FmIS+ryCzkZRWZhbysIrOQl1VkFvLllsyipKyi85CXVXQe8rKKzkNeVtF5yMsqOg95WUXnIS+r6DzkZRWdh7ysovNoYZ6XlFV0Hm3k8RYSeUlZRedRL5VXtthVK6uWPXgJLORXg8xCfjHILOTXgsxCXlaRWcjLKjILeVlFZiEvq8gs5MstmUVJWUXnIS+r6DzkZRWdh7ysovOQl1V0HvKyis5DXlbRecjLKjoPeVlF59HCPC8pq+g82sjjLSTykrKKzqNeKq/sZKhWVi1bHRJYyK8GmYX8YpBZyK8FmYW8rCKzkJdVZBbysorMQl5WkVmU9Z0isihttkblUdatisqjrJEVlUdZjysqj7L2V1QeZT3fqDzK2sFReZR1iqPyKGsiR+XRwjwvKavoPNrI4y0k8pKyis6jOpV/UunwWjRxZkcs5HerBrJ539hOcjvp5h1gK1vFrjpBJzx9Fc1DL+mMBl1m26MuG4q/OSO1drP3GcZjg2vPO3FTPonixfG9nyw7KT8ev0K76Uzgfezx+MNcNDZW3lFwLNY5fuVuMo/5EkP0Zi7Oe8OtvjGMYQxjGMMYxjCGMYxhDGMYwxjGMIYxjGEMYxjDGMYwhjGMYQxjGMMYxjCGMYxhDGMYwxjGMIYxjGEMYxjDGMYwhjGMYQxjGMMYxjCGMfx/anjRj255HPse/9UVD9ba/YHh86ri0dhk/dHYMx77PCker7W6qweIZ0GU9gM/5JWPyCZfe063+snapJ+/en4WBW7qR2EGZSUpn/Uu+VUUc0vtyed3fMJDb/2Alp91dgddNhRPLg/Eg8ziDyvgV6kAq5BeyfYvJjw9DVNxfjKLq3k4zkk7W+zPCokVIX/c+7zyWW6x+Vesk079pJ/kV0XNSGxPdupn5+/UHU87fwHrqq3wxaPjGXuhezGLEl8Ivs4+Vjma1SZkvkIVR3d6SCssP/S4mA89u6u592q7rrvjlc8DEW+d4pwu58kkjuYz7rEff2T/KD6/719M3aR4/l1MsK2no4uvjmYnpO9OJm+ERz/g4SSdspfMYf9m1nEQWOxw/RtJ4I95p2dvnQ8+bVXOt2dHEsWsc50dyuAndp3ZFKFa+IrP/pmtOPoXSGwijAu98+tP/c98wY6OjpYnr55irlpc9mvdQ11tlzF3P9fZ+UFzH93vi/NVHN2RCGsRDEWk5I0c+hdukviTkHsnokVEcp6fyU/1TuXqQs/mybRT91pkl/RweT3rz6QgOFQ5yr74Zl2XJI2jz1zNZ/nduk7RzB376ULNqvhy7aPKLVZWdVVWC8n6slJnemgvPmJbTef1hYf1mK2rpjPd1FkfunlWVfr+Q1VNIbbtbfb7Hx/Zf9//8YGdvf/w8Zfffmbv3v/8ywl7e/rhVE3gTbZq83tXlGgsjVgSxSkL5zdZHIxZ3tIkYW4yzooXP5woKK7OvdB5kpndLrtUX1xins7jkM3cOOFvgshNO65Y8reyS/nks8v8M6WTWV2iPbEtDqFK+KHZTi+P9Wc+3fPJ3nnh8St3HqRsFkfZGsZfdNmLH/b3T05OT1803HgGOMABDnCAAxzgAAc4wAEOcP5v4rBkfpP9JzDzuPiQee5CEMXcAw1oQAMa0IAGNKABDWhAAxrQlNPc5bdmfUFzGcw5cIADHOAABzjAAQ5wgAMc4ACnDs7jewNt8d7As7nsvYFDO/+F7fh4Z+fgAKQgBSlIQQpSkIIUpCAFKUhBClKQbgapk5O6qYx0kJMOh46zvwtSkIIUpCAFKUhBClKQghSkIAUpSDeDdChI38S+hNQ5yElte29vOAQpSEEKUpCCFKQgBSlIQQpSkIIUpJtBuiNIP07nMtL9nPQg20avQApSkIIUpCAFKUhBClKQghSkIAXpZpCOBOl/uCcj3ctJX78+OdnbAylIQQpSkIIUpCAFKUhBClKQghSkm0G6m//LxJzLSHdz0pOT3V2QghSkIAUpSEEKUpCCFKQgBSlIQboppHuC9NdI1lnQGeWk+/uOMxqBFKQgBSlIQQpSkIIUpCAFKUhBCtLWSFcoXuzedSrF7vupnwb8bOrOeD/l92nnxdtoHifVGIvne772b3iY+FEY8CRXqJDY3mbHnsdcliuxOz+dsiS64cwbVuyZ3E767mzGQ69jCW9rq2KH1dZ30zTuWPdWl+0ONHdaZDs56jsl6SLgS7yeG46nUZztbwX8SoO20LiKwrR3x/3JNBUal1HgqWssr83ZrPe/KORD9moefGZnaRS7E87OFklvh70J4p7NzsbT3jF7+3swvkl73E1S9r/f2G+nJ6/Et1J+w3bY72f/Y+/HY/HVF1tlV/fldjKO/Vn6L+l3Xm57/u3Xh6X7yMUyLeZ7R9ZYhP5JdrZcP+TxxdC2WH4KjyzPT2aBuzj0wyAb6l0G0fjzT5acLxNdHgJLF7Nsf3EWt6/dW3f5aemeYrt1YxGl7Ih5/s0s4P2Q353dTjrWD88Zu2xnMMj/qJx1QtZzUzfTPf/TCtxLHliHlsev3HmQslkcXfkBt7rLkYt769DuD7rWrRvMuXW4e9A/eLLtH3StsViqMoVs9Tk5OT21HrpKqk4jqsNGVHcaUR01orrbiOpeI6r7jageNKJqD5qRbWZ22c1ML7uZ+WU3M8HsZmaY3cwUs5uZY3Yzk8xuZpY5zcwyp6Ec1swsc5qZZY7BLGPJ/OZm7e3fNSqEmHsaoornVk9U8czqiSqeVz1RxbVLT1Rx5dITVVy39EQVVy09UcU1S09UtTDQVG1kTqmWBZqqjcwq1aJAU7WReaVaEmiqNjKzVAsCTdVG5pZqOaCp2ky+amRuqdYCmqp159adH6amZcCl+IK6quJp1VRVPK2aqoqnVVNVccnSVFVcsjRVFZcsTVXFJUtTVXHJ0lRVrQd0ZZuZXaoVga5sM/NLtSbQlW1mhqlWBbqyzcwx1bpAV7aZWaZaGejKNpTDmpllqsWBrqzWLPuk8oND8ZMiO2Ihv1v9npH/jNFJbifd/AeJyl8uVr9LJjx9Fc1DL+mMBl1m26MuG4q/OSO1Xz/uM4zHn1s978RN+SSKF8f3frL8Xe/xVCj8+JkJvI89Hn+Yi5/ZlHcUHIt1jl+5m8xjvsQQvxQWl8D059z8d6R1qzMe+zwpcDOn4oLMgijtix+3Ki2Trx13NWnSz+NuFgVu6kdhBmUlKZ/1LvlVFHNLLZLe8QkPvfUDWn7W2c2iYCgiQfwYZos/il9LK39IXsn2LyY8PQ1TcX4yi6t5OM5JO1vsT4WfSwUhf9z7vHJuiM2/Yp106idZXIv91IzE9mSnfnb+Tt3xtPMXsK7aCr/4bbDQvZhFiS8EX2cfqxzNahMyX6GKozs9pBWWH3pcTNye3dXce7Vd193xyueBiLdOcU6X82QSR/MZ99iPP7J/FJ/f9y+mblKsJ2KCbT0dXXx1NDshfXcyeSM8+gEPJ+mUvWQO+zezjoPAYofr30gCf8w7PXvrfPBpq3K+PTuSKGad6+xQBj+x68ymCNXCV3z2zyNm618gsYkwLvTOrz/1P/NseTs6Wp68eoq5anHZr3UPdbVdxtz9XGfnB819dL8vzldxdEcirEUwFJGSJ8b+xfJWIO7lNwMl5/mZ/FTvVK4u9GyeTDt1r0V2SQ+X17P+TAqCQ5Wj7Itv1nVJ0jj6zNV8lt+t6xTN3LGfLtSsii/XPqrcYmVVV2W1kKwvK3Wmh/biI7bVdF5feFiP2bpqOtNNnfWhm2dVpe8/VNUUYtveZr//8ZH99/0fH9jZ+w8ff/ntZ/bu/c+/nLC3px9O1QTeZKs2v3dFicbSiCVRVkiH85ssDsYsLxET5ibjrHjxw4mC4urcC50nmdntskv1xSXm6TwO2cyNE/4miNy044olfyu7lE8+u8w/UzqZ1SXaE9viEKqEH77BLZtf/ABb3JcpflD9JneQAgc4wAEOcIADHOAABzjAAc7G4zy/wUUQxdwDDWhAAxrQgAY0oAENaEADGtCU0zy7JVDQiFv8gAMc4AAHOMABDnCAAxzgAAc437BR4kd+M+Oxm85jzjpvttAq8btqlfgfV0TcW57/z/HNpc/DlIlLJvoecm+enf8e2xu82YwWiM4GtEB0WmuBmD94WrcFE5HOkEhnh0hnRKSzS6SzR6SzT6RzQKSz1lvASIgqom2qkLapYtqmCmqbKqptqrC2qeLapgpsmyqyHarIdsjWaqrIdqgi29GKbPWWfWtS9Zv0GchIz1D9RnwGMtJ5X7/ZnoGMdM7Xb6hnICOd7wZN80x0iOJYnsYMWuGZ6BCFsjyHGTS4M9EhimZ5AjNoW2eyDhLFszx7GTSjM9Ehimd56qrfYm5NxqCpnImO9PQYNI4z0ZFOd4PmcCY60ulu0ADOREc63U2avBkJUUW0PIOZtG4zEqIKankSM2nIZiREFdfyPGbSZs1oZaSKbHkqM2meZiREFdnybIaWaBvREg3DGMYwhjGMYQxjGMMYxjCGMYxhDGMYw9/T8KIf3fI49j3+qyv+ocruD9AS/8mRoCX+44aW+FobWuKjJb7Ghpb4X25oif/lhpb4mhta4qMl/lc3tMQHDnCAAxzgAAc4wAEOcIADHOBsQkNJ0IAGNKABDWhAAxrQgAY0oNkcmr9NI0vgAAc4wAEOcIADHOAABzjAqe/3DVriv/ZveJj4URjwJEFD/O+rIX4Uf2anV1f+2OfhePHYBr/dBvjFt78Yefr/V39f/u+jevGXx/+5jLyF+N9pehP86//7/wHZk1M9"
               },
               {
                  "name" : "annual_peak_electric_demand",
                  "units" : "kW",
                  "value" : 476.88834000000003
               },
               {
                  "name" : "first_year_capital_cost",
                  "units" : "$",
                  "value" : 0
               },
               {
                  "name" : "annual_utility_cost",
                  "units" : "$",
                  "value" : 0
               },
               {
                  "name" : "total_lifecycle_cost",
                  "units" : "$",
                  "value" : 0
               }
            ],
            "step_warnings" : [ "A table in Annual Overview section returned false and was skipped." ]
         }
      }
   ],
   "updated_at" : "20170710T184953Z",
   "weather_file" : "USA_CO_Denver.Intl.AP.725650_TMY3.epw"
}
