{
   "completed_at" : "20170710T194716Z",
   "completed_status" : "Success",
   "created_at" : "2017-07-10 19:27:18 +0000",
   "current_step" : 5,
   "description" : "",
   "eplusout_err" : "Program Version,EnergyPlus, Version 8.7.0-78a111df4a, YMD=2017.07.10 19:38,IDD_Version 8.7.0\n   ************* IDF Context for following error/warning message:\n   ************* Note -- lines truncated at 300 characters, if necessary...\n   *************      5 Building,\n   ************* indicated Name=NECB 2011-Hospital-NECB HDD Method-CAN_AB_Medicine.Hat.718720_CWEC.epw created: 2017-07-10 19:27:27 +0000\n   ************* Only last 1 lines before error line shown.....\n   *************      6   NECB 2011-Hospital-NECB HDD Method-CAN_AB_Medicine.Hat.718720_CWEC.epw created: 2017-07-10 19:27:27 +0000, !- Name\n   ** Warning ** IP: IDF line~6 Alpha Argument length exceeds maximum, will be truncated=  NECB 2011-Hospital-NECB HDD Method-CAN_AB_Medicine.Hat.718720_CWEC.epw created: 2017-07-10 19:27:27 +000\n   **   ~~~   ** Will be processed as Alpha=NECB 2011-HOSPITAL-NECB HDD METHOD-CAN_AB_MEDICINE.HAT.718720_CWEC.EPW CREATED: 2017-07-10 19:27:27 +0000\n   ************* IDF Context for following error/warning message:\n   ************* Note -- lines truncated at 300 characters, if necessary...\n   *************   5098 Schedule:Week:Daily,\n   ************* indicated Name=Schedule:Week:Daily {eaa37721-3d19-47fd-af20-740e9d4dbf50}\n   ************* Only last 10 lines before error line shown.....\n   *************   5099   Schedule:Week:Daily {eaa37721-3d19-47fd-af20-740e9d4dbf50}, !- Name\n   *************   5100   Sp-ER_Exam1_Mult4_Flr_1 Sys-3 Flr-1 Sch-H HPlcmt-south ZN NECB System 3 PSZ Occ Sch Sunday, !- Sunday Schedule:Day Name\n   *************   5101   Sp-ER_Exam1_Mult4_Flr_1 Sys-3 Flr-1 Sch-H HPlcmt-south ZN NECB System 3 PSZ Occ Sch Monday, !- Monday Schedule:Day Name\n   *************   5102   Sp-ER_Exam1_Mult4_Flr_1 Sys-3 Flr-1 Sch-H HPlcmt-south ZN NECB System 3 PSZ Occ Sch Tuesday, !- Tuesday Schedule:Day Name\n   *************   5103   Sp-ER_Exam1_Mult4_Flr_1 Sys-3 Flr-1 Sch-H HPlcmt-south ZN NECB System 3 PSZ Occ Sch Wednesday, !- Wednesday Schedule:Day Name\n   *************   5104   Sp-ER_Exam1_Mult4_Flr_1 Sys-3 Flr-1 Sch-H HPlcmt-south ZN NECB System 3 PSZ Occ Sch Thursday, !- Thursday Schedule:Day Name\n   *************   5105   Sp-ER_Exam1_Mult4_Flr_1 Sys-3 Flr-1 Sch-H HPlcmt-south ZN NECB System 3 PSZ Occ Sch Friday, !- Friday Schedule:Day Name\n   *************   5106   Sp-ER_Exam1_Mult4_Flr_1 Sys-3 Flr-1 Sch-H HPlcmt-south ZN NECB System 3 PSZ Occ Sch Saturday, !- Saturday Schedule:Day Name\n   *************   5107   Sp-ER_Exam1_Mult4_Flr_1 Sys-3 Flr-1 Sch-H HPlcmt-south ZN NECB System 3 PSZ Occ Sch Default, !- Holiday Schedule:Day Name\n   *************   5108   Sp-ER_Exam1_Mult4_Flr_1 Sys-3 Flr-1 Sch-H HPlcmt-south ZN NECB System 3 PSZ Occ Sch Summer Design Day, !- SummerDesignDay Schedule:Day Name\n   ** Warning ** IP: IDF line~5108 Alpha Argument length exceeds maximum, will be truncated=  Sp-ER_Exam1_Mult4_Flr_1 Sys-3 Flr-1 Sch-H HPlcmt-south ZN NECB System 3 PSZ Occ Sch Summer Design Da\n   **   ~~~   ** Will be processed as Alpha=SP-ER_EXAM1_MULT4_FLR_1 SYS-3 FLR-1 SCH-H HPLCMT-SOUTH ZN NECB SYSTEM 3 PSZ OCC SCH SUMMER DESIGN DAY\n   ************* IDF Context for following error/warning message:\n   ************* Note -- lines truncated at 300 characters, if necessary...\n   *************   5098 Schedule:Week:Daily,\n   ************* indicated Name=Schedule:Week:Daily {eaa37721-3d19-47fd-af20-740e9d4dbf50}\n   ************* Only last 10 lines before error line shown.....\n   *************   5100   Sp-ER_Exam1_Mult4_Flr_1 Sys-3 Flr-1 Sch-H HPlcmt-south ZN NECB System 3 PSZ Occ Sch Sunday, !- Sunday Schedule:Day Name\n   *************   5101   Sp-ER_Exam1_Mult4_Flr_1 Sys-3 Flr-1 Sch-H HPlcmt-south ZN NECB System 3 PSZ Occ Sch Monday, !- Monday Schedule:Day Name\n   *************   5102   Sp-ER_Exam1_Mult4_Flr_1 Sys-3 Flr-1 Sch-H HPlcmt-south ZN NECB System 3 PSZ Occ Sch Tuesday, !- Tuesday Schedule:Day Name\n   *************   5103   Sp-ER_Exam1_Mult4_Flr_1 Sys-3 Flr-1 Sch-H HPlcmt-south ZN NECB System 3 PSZ Occ Sch Wednesday, !- Wednesday Schedule:Day Name\n   *************   5104   Sp-ER_Exam1_Mult4_Flr_1 Sys-3 Flr-1 Sch-H HPlcmt-south ZN NECB System 3 PSZ Occ Sch Thursday, !- Thursday Schedule:Day Name\n   *************   5105   Sp-ER_Exam1_Mult4_Flr_1 Sys-3 Flr-1 Sch-H HPlcmt-south ZN NECB System 3 PSZ Occ Sch Friday, !- Friday Schedule:Day Name\n   *************   5106   Sp-ER_Exam1_Mult4_Flr_1 Sys-3 Flr-1 Sch-H HPlcmt-south ZN NECB System 3 PSZ Occ Sch Saturday, !- Saturday Schedule:Day Name\n   *************   5107   Sp-ER_Exam1_Mult4_Flr_1 Sys-3 Flr-1 Sch-H HPlcmt-south ZN NECB System 3 PSZ Occ Sch Default, !- Holiday Schedule:Day Name\n   *************   5108   Sp-ER_Exam1_Mult4_Flr_1 Sys-3 Flr-1 Sch-H HPlcmt-south ZN NECB System 3 PSZ Occ Sch Summer Design Day, !- SummerDesignDay Schedule:Day Name\n   *************   5109   Sp-ER_Exam1_Mult4_Flr_1 Sys-3 Flr-1 Sch-H HPlcmt-south ZN NECB System 3 PSZ Occ Sch Winter Design Day, !- WinterDesignDay Schedule:Day Name\n   ** Warning ** IP: IDF line~5109 Alpha Argument length exceeds maximum, will be truncated=  Sp-ER_Exam1_Mult4_Flr_1 Sys-3 Flr-1 Sch-H HPlcmt-south ZN NECB System 3 PSZ Occ Sch Winter Design Da\n   **   ~~~   ** Will be processed as Alpha=SP-ER_EXAM1_MULT4_FLR_1 SYS-3 FLR-1 SCH-H HPLCMT-SOUTH ZN NECB SYSTEM 3 PSZ OCC SCH WINTER DESIGN DAY\n   ************* IDF Context for following error/warning message:\n   ************* Note -- lines truncated at 300 characters, if necessary...\n   *************   5129 Schedule:Day:Interval,\n   ************* indicated Name=Sp-ER_Exam1_Mult4_Flr_1 Sys-3 Flr-1 Sch-H HPlcmt-south ZN NECB System 3 PSZ Occ Sch Summer Design Day\n   ************* Only last 1 lines before error line shown.....\n   *************   5130   Sp-ER_Exam1_Mult4_Flr_1 Sys-3 Flr-1 Sch-H HPlcmt-south ZN NECB System 3 PSZ Occ Sch Summer Design Day, !- Name\n   ** Warning ** IP: IDF line~5130 Alpha Argument length exceeds maximum, will be truncated=  Sp-ER_Exam1_Mult4_Flr_1 Sys-3 Flr-1 Sch-H HPlcmt-south ZN NECB System 3 PSZ Occ Sch Summer Design Da\n   **   ~~~   ** Will be processed as Alpha=SP-ER_EXAM1_MULT4_FLR_1 SYS-3 FLR-1 SCH-H HPLCMT-SOUTH ZN NECB SYSTEM 3 PSZ OCC SCH SUMMER DESIGN DAY\n   ************* IDF Context for following error/warning message:\n   ************* Note -- lines truncated at 300 characters, if necessary...\n   *************   5136 Schedule:Day:Interval,\n   ************* indicated Name=Sp-ER_Exam1_Mult4_Flr_1 Sys-3 Flr-1 Sch-H HPlcmt-south ZN NECB System 3 PSZ Occ Sch Winter Design Day\n   ************* Only last 1 lines before error line shown.....\n   *************   5137   Sp-ER_Exam1_Mult4_Flr_1 Sys-3 Flr-1 Sch-H HPlcmt-south ZN NECB System 3 PSZ Occ Sch Winter Design Day, !- Name\n   ** Warning ** IP: IDF line~5137 Alpha Argument length exceeds maximum, will be truncated=  Sp-ER_Exam1_Mult4_Flr_1 Sys-3 Flr-1 Sch-H HPlcmt-south ZN NECB System 3 PSZ Occ Sch Winter Design Da\n   **   ~~~   ** Will be processed as Alpha=SP-ER_EXAM1_MULT4_FLR_1 SYS-3 FLR-1 SCH-H HPLCMT-SOUTH ZN NECB SYSTEM 3 PSZ OCC SCH WINTER DESIGN DAY\n   ************* IDF Context for following error/warning message:\n   ************* Note -- lines truncated at 300 characters, if necessary...\n   *************   5892 Schedule:Week:Daily,\n   ************* indicated Name=Schedule:Week:Daily {bd705cf1-c145-4751-8479-884169293f06}\n   ************* Only last 10 lines before error line shown.....\n   *************   5893   Schedule:Week:Daily {bd705cf1-c145-4751-8479-884169293f06}, !- Name\n   *************   5894   Sp-ER_NurseStn_Lobby_Flr_1 Sys-3 Flr-1 Sch-H HPlcmt-east ZN NECB System 3 PSZ Occ Sch Sunday, !- Sunday Schedule:Day Name\n   *************   5895   Sp-ER_NurseStn_Lobby_Flr_1 Sys-3 Flr-1 Sch-H HPlcmt-east ZN NECB System 3 PSZ Occ Sch Monday, !- Monday Schedule:Day Name\n   *************   5896   Sp-ER_NurseStn_Lobby_Flr_1 Sys-3 Flr-1 Sch-H HPlcmt-east ZN NECB System 3 PSZ Occ Sch Tuesday, !- Tuesday Schedule:Day Name\n   *************   5897   Sp-ER_NurseStn_Lobby_Flr_1 Sys-3 Flr-1 Sch-H HPlcmt-east ZN NECB System 3 PSZ Occ Sch Wednesday, !- Wednesday Schedule:Day Name\n   *************   5898   Sp-ER_NurseStn_Lobby_Flr_1 Sys-3 Flr-1 Sch-H HPlcmt-east ZN NECB System 3 PSZ Occ Sch Thursday, !- Thursday Schedule:Day Name\n   *************   5899   Sp-ER_NurseStn_Lobby_Flr_1 Sys-3 Flr-1 Sch-H HPlcmt-east ZN NECB System 3 PSZ Occ Sch Friday, !- Friday Schedule:Day Name\n   *************   5900   Sp-ER_NurseStn_Lobby_Flr_1 Sys-3 Flr-1 Sch-H HPlcmt-east ZN NECB System 3 PSZ Occ Sch Saturday, !- Saturday Schedule:Day Name\n   *************   5901   Sp-ER_NurseStn_Lobby_Flr_1 Sys-3 Flr-1 Sch-H HPlcmt-east ZN NECB System 3 PSZ Occ Sch Default, !- Holiday Schedule:Day Name\n   *************   5902   Sp-ER_NurseStn_Lobby_Flr_1 Sys-3 Flr-1 Sch-H HPlcmt-east ZN NECB System 3 PSZ Occ Sch Summer Design Day, !- SummerDesignDay Schedule:Day Name\n   ** Warning ** IP: IDF line~5902 Alpha Argument length exceeds maximum, will be truncated=  Sp-ER_NurseStn_Lobby_Flr_1 Sys-3 Flr-1 Sch-H HPlcmt-east ZN NECB System 3 PSZ Occ Sch Summer Design Da\n   **   ~~~   ** Will be processed as Alpha=SP-ER_NURSESTN_LOBBY_FLR_1 SYS-3 FLR-1 SCH-H HPLCMT-EAST ZN NECB SYSTEM 3 PSZ OCC SCH SUMMER DESIGN DAY\n   ************* IDF Context for following error/warning message:\n   ************* Note -- lines truncated at 300 characters, if necessary...\n   *************   5892 Schedule:Week:Daily,\n   ************* indicated Name=Schedule:Week:Daily {bd705cf1-c145-4751-8479-884169293f06}\n   ************* Only last 10 lines before error line shown.....\n   *************   5894   Sp-ER_NurseStn_Lobby_Flr_1 Sys-3 Flr-1 Sch-H HPlcmt-east ZN NECB System 3 PSZ Occ Sch Sunday, !- Sunday Schedule:Day Name\n   *************   5895   Sp-ER_NurseStn_Lobby_Flr_1 Sys-3 Flr-1 Sch-H HPlcmt-east ZN NECB System 3 PSZ Occ Sch Monday, !- Monday Schedule:Day Name\n   *************   5896   Sp-ER_NurseStn_Lobby_Flr_1 Sys-3 Flr-1 Sch-H HPlcmt-east ZN NECB System 3 PSZ Occ Sch Tuesday, !- Tuesday Schedule:Day Name\n   *************   5897   Sp-ER_NurseStn_Lobby_Flr_1 Sys-3 Flr-1 Sch-H HPlcmt-east ZN NECB System 3 PSZ Occ Sch Wednesday, !- Wednesday Schedule:Day Name\n   *************   5898   Sp-ER_NurseStn_Lobby_Flr_1 Sys-3 Flr-1 Sch-H HPlcmt-east ZN NECB System 3 PSZ Occ Sch Thursday, !- Thursday Schedule:Day Name\n   *************   5899   Sp-ER_NurseStn_Lobby_Flr_1 Sys-3 Flr-1 Sch-H HPlcmt-east ZN NECB System 3 PSZ Occ Sch Friday, !- Friday Schedule:Day Name\n   *************   5900   Sp-ER_NurseStn_Lobby_Flr_1 Sys-3 Flr-1 Sch-H HPlcmt-east ZN NECB System 3 PSZ Occ Sch Saturday, !- Saturday Schedule:Day Name\n   *************   5901   Sp-ER_NurseStn_Lobby_Flr_1 Sys-3 Flr-1 Sch-H HPlcmt-east ZN NECB System 3 PSZ Occ Sch Default, !- Holiday Schedule:Day Name\n   *************   5902   Sp-ER_NurseStn_Lobby_Flr_1 Sys-3 Flr-1 Sch-H HPlcmt-east ZN NECB System 3 PSZ Occ Sch Summer Design Day, !- SummerDesignDay Schedule:Day Name\n   *************   5903   Sp-ER_NurseStn_Lobby_Flr_1 Sys-3 Flr-1 Sch-H HPlcmt-east ZN NECB System 3 PSZ Occ Sch Winter Design Day, !- WinterDesignDay Schedule:Day Name\n   ** Warning ** IP: IDF line~5903 Alpha Argument length exceeds maximum, will be truncated=  Sp-ER_NurseStn_Lobby_Flr_1 Sys-3 Flr-1 Sch-H HPlcmt-east ZN NECB System 3 PSZ Occ Sch Winter Design Da\n   **   ~~~   ** Will be processed as Alpha=SP-ER_NURSESTN_LOBBY_FLR_1 SYS-3 FLR-1 SCH-H HPLCMT-EAST ZN NECB SYSTEM 3 PSZ OCC SCH WINTER DESIGN DAY\n   ************* IDF Context for following error/warning message:\n   ************* Note -- lines truncated at 300 characters, if necessary...\n   *************   5923 Schedule:Day:Interval,\n   ************* indicated Name=Sp-ER_NurseStn_Lobby_Flr_1 Sys-3 Flr-1 Sch-H HPlcmt-east ZN NECB System 3 PSZ Occ Sch Summer Design Day\n   ************* Only last 1 lines before error line shown.....\n   *************   5924   Sp-ER_NurseStn_Lobby_Flr_1 Sys-3 Flr-1 Sch-H HPlcmt-east ZN NECB System 3 PSZ Occ Sch Summer Design Day, !- Name\n   ** Warning ** IP: IDF line~5924 Alpha Argument length exceeds maximum, will be truncated=  Sp-ER_NurseStn_Lobby_Flr_1 Sys-3 Flr-1 Sch-H HPlcmt-east ZN NECB System 3 PSZ Occ Sch Summer Design Da\n   **   ~~~   ** Will be processed as Alpha=SP-ER_NURSESTN_LOBBY_FLR_1 SYS-3 FLR-1 SCH-H HPLCMT-EAST ZN NECB SYSTEM 3 PSZ OCC SCH SUMMER DESIGN DAY\n   ************* IDF Context for following error/warning message:\n   ************* Note -- lines truncated at 300 characters, if necessary...\n   *************   5930 Schedule:Day:Interval,\n   ************* indicated Name=Sp-ER_NurseStn_Lobby_Flr_1 Sys-3 Flr-1 Sch-H HPlcmt-east ZN NECB System 3 PSZ Occ Sch Winter Design Day\n   ************* Only last 1 lines before error line shown.....\n   *************   5931   Sp-ER_NurseStn_Lobby_Flr_1 Sys-3 Flr-1 Sch-H HPlcmt-east ZN NECB System 3 PSZ Occ Sch Winter Design Day, !- Name\n   ** Warning ** IP: IDF line~5931 Alpha Argument length exceeds maximum, will be truncated=  Sp-ER_NurseStn_Lobby_Flr_1 Sys-3 Flr-1 Sch-H HPlcmt-east ZN NECB System 3 PSZ Occ Sch Winter Design Da\n   **   ~~~   ** Will be processed as Alpha=SP-ER_NURSESTN_LOBBY_FLR_1 SYS-3 FLR-1 SCH-H HPLCMT-EAST ZN NECB SYSTEM 3 PSZ OCC SCH WINTER DESIGN DAY\n   ************* IDF Context for following error/warning message:\n   ************* Note -- lines truncated at 300 characters, if necessary...\n   *************   6693 Schedule:Week:Daily,\n   ************* indicated Name=Schedule:Week:Daily {e13b4ff4-2752-4992-b97a-d1cf10ebf060}\n   ************* Only last 10 lines before error line shown.....\n   *************   6694   Schedule:Week:Daily {e13b4ff4-2752-4992-b97a-d1cf10ebf060}, !- Name\n   *************   6695   Sp-ER_Triage_Mult4_Flr_1 Sys-3 Flr-1 Sch-H HPlcmt-north ZN NECB System 3 PSZ Occ Sch Sunday, !- Sunday Schedule:Day Name\n   *************   6696   Sp-ER_Triage_Mult4_Flr_1 Sys-3 Flr-1 Sch-H HPlcmt-north ZN NECB System 3 PSZ Occ Sch Monday, !- Monday Schedule:Day Name\n   *************   6697   Sp-ER_Triage_Mult4_Flr_1 Sys-3 Flr-1 Sch-H HPlcmt-north ZN NECB System 3 PSZ Occ Sch Tuesday, !- Tuesday Schedule:Day Name\n   *************   6698   Sp-ER_Triage_Mult4_Flr_1 Sys-3 Flr-1 Sch-H HPlcmt-north ZN NECB System 3 PSZ Occ Sch Wednesday, !- Wednesday Schedule:Day Name\n   *************   6699   Sp-ER_Triage_Mult4_Flr_1 Sys-3 Flr-1 Sch-H HPlcmt-north ZN NECB System 3 PSZ Occ Sch Thursday, !- Thursday Schedule:Day Name\n   *************   6700   Sp-ER_Triage_Mult4_Flr_1 Sys-3 Flr-1 Sch-H HPlcmt-north ZN NECB System 3 PSZ Occ Sch Friday, !- Friday Schedule:Day Name\n   *************   6701   Sp-ER_Triage_Mult4_Flr_1 Sys-3 Flr-1 Sch-H HPlcmt-north ZN NECB System 3 PSZ Occ Sch Saturday, !- Saturday Schedule:Day Name\n   *************   6702   Sp-ER_Triage_Mult4_Flr_1 Sys-3 Flr-1 Sch-H HPlcmt-north ZN NECB System 3 PSZ Occ Sch Default, !- Holiday Schedule:Day Name\n   *************   6703   Sp-ER_Triage_Mult4_Flr_1 Sys-3 Flr-1 Sch-H HPlcmt-north ZN NECB System 3 PSZ Occ Sch Summer Design Day, !- SummerDesignDay Schedule:Day Name\n   ** Warning ** IP: IDF line~6703 Alpha Argument length exceeds maximum, will be truncated=  Sp-ER_Triage_Mult4_Flr_1 Sys-3 Flr-1 Sch-H HPlcmt-north ZN NECB System 3 PSZ Occ Sch Summer Design Da\n   **   ~~~   ** Will be processed as Alpha=SP-ER_TRIAGE_MULT4_FLR_1 SYS-3 FLR-1 SCH-H HPLCMT-NORTH ZN NECB SYSTEM 3 PSZ OCC SCH SUMMER DESIGN DAY\n   ************* IDF Context for following error/warning message:\n   ************* Note -- lines truncated at 300 characters, if necessary...\n   *************   6693 Schedule:Week:Daily,\n   ************* indicated Name=Schedule:Week:Daily {e13b4ff4-2752-4992-b97a-d1cf10ebf060}\n   ************* Only last 10 lines before error line shown.....\n   *************   6695   Sp-ER_Triage_Mult4_Flr_1 Sys-3 Flr-1 Sch-H HPlcmt-north ZN NECB System 3 PSZ Occ Sch Sunday, !- Sunday Schedule:Day Name\n   *************   6696   Sp-ER_Triage_Mult4_Flr_1 Sys-3 Flr-1 Sch-H HPlcmt-north ZN NECB System 3 PSZ Occ Sch Monday, !- Monday Schedule:Day Name\n   *************   6697   Sp-ER_Triage_Mult4_Flr_1 Sys-3 Flr-1 Sch-H HPlcmt-north ZN NECB System 3 PSZ Occ Sch Tuesday, !- Tuesday Schedule:Day Name\n   *************   6698   Sp-ER_Triage_Mult4_Flr_1 Sys-3 Flr-1 Sch-H HPlcmt-north ZN NECB System 3 PSZ Occ Sch Wednesday, !- Wednesday Schedule:Day Name\n   *************   6699   Sp-ER_Triage_Mult4_Flr_1 Sys-3 Flr-1 Sch-H HPlcmt-north ZN NECB System 3 PSZ Occ Sch Thursday, !- Thursday Schedule:Day Name\n   *************   6700   Sp-ER_Triage_Mult4_Flr_1 Sys-3 Flr-1 Sch-H HPlcmt-north ZN NECB System 3 PSZ Occ Sch Friday, !- Friday Schedule:Day Name\n   *************   6701   Sp-ER_Triage_Mult4_Flr_1 Sys-3 Flr-1 Sch-H HPlcmt-north ZN NECB System 3 PSZ Occ Sch Saturday, !- Saturday Schedule:Day Name\n   *************   6702   Sp-ER_Triage_Mult4_Flr_1 Sys-3 Flr-1 Sch-H HPlcmt-north ZN NECB System 3 PSZ Occ Sch Default, !- Holiday Schedule:Day Name\n   *************   6703   Sp-ER_Triage_Mult4_Flr_1 Sys-3 Flr-1 Sch-H HPlcmt-north ZN NECB System 3 PSZ Occ Sch Summer Design Day, !- SummerDesignDay Schedule:Day Name\n   *************   6704   Sp-ER_Triage_Mult4_Flr_1 Sys-3 Flr-1 Sch-H HPlcmt-north ZN NECB System 3 PSZ Occ Sch Winter Design Day, !- WinterDesignDay Schedule:Day Name\n   ** Warning ** IP: IDF line~6704 Alpha Argument length exceeds maximum, will be truncated=  Sp-ER_Triage_Mult4_Flr_1 Sys-3 Flr-1 Sch-H HPlcmt-north ZN NECB System 3 PSZ Occ Sch Winter Design Da\n   **   ~~~   ** Will be processed as Alpha=SP-ER_TRIAGE_MULT4_FLR_1 SYS-3 FLR-1 SCH-H HPLCMT-NORTH ZN NECB SYSTEM 3 PSZ OCC SCH WINTER DESIGN DAY\n   ************* IDF Context for following error/warning message:\n   ************* Note -- lines truncated at 300 characters, if necessary...\n   *************   6724 Schedule:Day:Interval,\n   ************* indicated Name=Sp-ER_Triage_Mult4_Flr_1 Sys-3 Flr-1 Sch-H HPlcmt-north ZN NECB System 3 PSZ Occ Sch Summer Design Day\n   ************* Only last 1 lines before error line shown.....\n   *************   6725   Sp-ER_Triage_Mult4_Flr_1 Sys-3 Flr-1 Sch-H HPlcmt-north ZN NECB System 3 PSZ Occ Sch Summer Design Day, !- Name\n   ** Warning ** IP: IDF line~6725 Alpha Argument length exceeds maximum, will be truncated=  Sp-ER_Triage_Mult4_Flr_1 Sys-3 Flr-1 Sch-H HPlcmt-north ZN NECB System 3 PSZ Occ Sch Summer Design Da\n   **   ~~~   ** Will be processed as Alpha=SP-ER_TRIAGE_MULT4_FLR_1 SYS-3 FLR-1 SCH-H HPLCMT-NORTH ZN NECB SYSTEM 3 PSZ OCC SCH SUMMER DESIGN DAY\n   ************* IDF Context for following error/warning message:\n   ************* Note -- lines truncated at 300 characters, if necessary...\n   *************   6731 Schedule:Day:Interval,\n   ************* indicated Name=Sp-ER_Triage_Mult4_Flr_1 Sys-3 Flr-1 Sch-H HPlcmt-north ZN NECB System 3 PSZ Occ Sch Winter Design Day\n   ************* Only last 1 lines before error line shown.....\n   *************   6732   Sp-ER_Triage_Mult4_Flr_1 Sys-3 Flr-1 Sch-H HPlcmt-north ZN NECB System 3 PSZ Occ Sch Winter Design Day, !- Name\n   ** Warning ** IP: IDF line~6732 Alpha Argument length exceeds maximum, will be truncated=  Sp-ER_Triage_Mult4_Flr_1 Sys-3 Flr-1 Sch-H HPlcmt-north ZN NECB System 3 PSZ Occ Sch Winter Design Da\n   **   ~~~   ** Will be processed as Alpha=SP-ER_TRIAGE_MULT4_FLR_1 SYS-3 FLR-1 SCH-H HPLCMT-NORTH ZN NECB SYSTEM 3 PSZ OCC SCH WINTER DESIGN DAY\n   ************* IDF Context for following error/warning message:\n   ************* Note -- lines truncated at 300 characters, if necessary...\n   *************   7423 Schedule:Week:Daily,\n   ************* indicated Name=Schedule:Week:Daily {d5887d5c-8f46-4d4b-89a5-9b586b5f9d50}\n   ************* Only last 10 lines before error line shown.....\n   *************   7424   Schedule:Week:Daily {d5887d5c-8f46-4d4b-89a5-9b586b5f9d50}, !- Name\n   *************   7425   Sp-ICU_NurseStn_Lobby_Flr_2 Sys-3 Flr-4 Sch-H HPlcmt-core ZN NECB System 3 PSZ Occ Sch Sunday, !- Sunday Schedule:Day Name\n   *************   7426   Sp-ICU_NurseStn_Lobby_Flr_2 Sys-3 Flr-4 Sch-H HPlcmt-core ZN NECB System 3 PSZ Occ Sch Monday, !- Monday Schedule:Day Name\n   *************   7427   Sp-ICU_NurseStn_Lobby_Flr_2 Sys-3 Flr-4 Sch-H HPlcmt-core ZN NECB System 3 PSZ Occ Sch Tuesday, !- Tuesday Schedule:Day Name\n   *************   7428   Sp-ICU_NurseStn_Lobby_Flr_2 Sys-3 Flr-4 Sch-H HPlcmt-core ZN NECB System 3 PSZ Occ Sch Wednesday, !- Wednesday Schedule:Day Name\n   *************   7429   Sp-ICU_NurseStn_Lobby_Flr_2 Sys-3 Flr-4 Sch-H HPlcmt-core ZN NECB System 3 PSZ Occ Sch Thursday, !- Thursday Schedule:Day Name\n   *************   7430   Sp-ICU_NurseStn_Lobby_Flr_2 Sys-3 Flr-4 Sch-H HPlcmt-core ZN NECB System 3 PSZ Occ Sch Friday, !- Friday Schedule:Day Name\n   *************   7431   Sp-ICU_NurseStn_Lobby_Flr_2 Sys-3 Flr-4 Sch-H HPlcmt-core ZN NECB System 3 PSZ Occ Sch Saturday, !- Saturday Schedule:Day Name\n   *************   7432   Sp-ICU_NurseStn_Lobby_Flr_2 Sys-3 Flr-4 Sch-H HPlcmt-core ZN NECB System 3 PSZ Occ Sch Default, !- Holiday Schedule:Day Name\n   *************   7433   Sp-ICU_NurseStn_Lobby_Flr_2 Sys-3 Flr-4 Sch-H HPlcmt-core ZN NECB System 3 PSZ Occ Sch Summer Design Day, !- SummerDesignDay Schedule:Day Name\n   ** Warning ** IP: IDF line~7433 Alpha Argument length exceeds maximum, will be truncated=  Sp-ICU_NurseStn_Lobby_Flr_2 Sys-3 Flr-4 Sch-H HPlcmt-core ZN NECB System 3 PSZ Occ Sch Summer Design Da\n   **   ~~~   ** Will be processed as Alpha=SP-ICU_NURSESTN_LOBBY_FLR_2 SYS-3 FLR-4 SCH-H HPLCMT-CORE ZN NECB SYSTEM 3 PSZ OCC SCH SUMMER DESIGN DAY\n   ************* IDF Context for following error/warning message:\n   ************* Note -- lines truncated at 300 characters, if necessary...\n   *************   7423 Schedule:Week:Daily,\n   ************* indicated Name=Schedule:Week:Daily {d5887d5c-8f46-4d4b-89a5-9b586b5f9d50}\n   ************* Only last 10 lines before error line shown.....\n   *************   7425   Sp-ICU_NurseStn_Lobby_Flr_2 Sys-3 Flr-4 Sch-H HPlcmt-core ZN NECB System 3 PSZ Occ Sch Sunday, !- Sunday Schedule:Day Name\n   *************   7426   Sp-ICU_NurseStn_Lobby_Flr_2 Sys-3 Flr-4 Sch-H HPlcmt-core ZN NECB System 3 PSZ Occ Sch Monday, !- Monday Schedule:Day Name\n   *************   7427   Sp-ICU_NurseStn_Lobby_Flr_2 Sys-3 Flr-4 Sch-H HPlcmt-core ZN NECB System 3 PSZ Occ Sch Tuesday, !- Tuesday Schedule:Day Name\n   *************   7428   Sp-ICU_NurseStn_Lobby_Flr_2 Sys-3 Flr-4 Sch-H HPlcmt-core ZN NECB System 3 PSZ Occ Sch Wednesday, !- Wednesday Schedule:Day Name\n   *************   7429   Sp-ICU_NurseStn_Lobby_Flr_2 Sys-3 Flr-4 Sch-H HPlcmt-core ZN NECB System 3 PSZ Occ Sch Thursday, !- Thursday Schedule:Day Name\n   *************   7430   Sp-ICU_NurseStn_Lobby_Flr_2 Sys-3 Flr-4 Sch-H HPlcmt-core ZN NECB System 3 PSZ Occ Sch Friday, !- Friday Schedule:Day Name\n   *************   7431   Sp-ICU_NurseStn_Lobby_Flr_2 Sys-3 Flr-4 Sch-H HPlcmt-core ZN NECB System 3 PSZ Occ Sch Saturday, !- Saturday Schedule:Day Name\n   *************   7432   Sp-ICU_NurseStn_Lobby_Flr_2 Sys-3 Flr-4 Sch-H HPlcmt-core ZN NECB System 3 PSZ Occ Sch Default, !- Holiday Schedule:Day Name\n   *************   7433   Sp-ICU_NurseStn_Lobby_Flr_2 Sys-3 Flr-4 Sch-H HPlcmt-core ZN NECB System 3 PSZ Occ Sch Summer Design Day, !- SummerDesignDay Schedule:Day Name\n   *************   7434   Sp-ICU_NurseStn_Lobby_Flr_2 Sys-3 Flr-4 Sch-H HPlcmt-core ZN NECB System 3 PSZ Occ Sch Winter Design Day, !- WinterDesignDay Schedule:Day Name\n   ** Warning ** IP: IDF line~7434 Alpha Argument length exceeds maximum, will be truncated=  Sp-ICU_NurseStn_Lobby_Flr_2 Sys-3 Flr-4 Sch-H HPlcmt-core ZN NECB System 3 PSZ Occ Sch Winter Design Da\n   **   ~~~   ** Will be processed as Alpha=SP-ICU_NURSESTN_LOBBY_FLR_2 SYS-3 FLR-4 SCH-H HPLCMT-CORE ZN NECB SYSTEM 3 PSZ OCC SCH WINTER DESIGN DAY\n   ************* IDF Context for following error/warning message:\n   ************* Note -- lines truncated at 300 characters, if necessary...\n   *************   7454 Schedule:Day:Interval,\n   ************* indicated Name=Sp-ICU_NurseStn_Lobby_Flr_2 Sys-3 Flr-4 Sch-H HPlcmt-core ZN NECB System 3 PSZ Occ Sch Summer Design Day\n   ************* Only last 1 lines before error line shown.....\n   *************   7455   Sp-ICU_NurseStn_Lobby_Flr_2 Sys-3 Flr-4 Sch-H HPlcmt-core ZN NECB System 3 PSZ Occ Sch Summer Design Day, !- Name\n   ** Warning ** IP: IDF line~7455 Alpha Argument length exceeds maximum, will be truncated=  Sp-ICU_NurseStn_Lobby_Flr_2 Sys-3 Flr-4 Sch-H HPlcmt-core ZN NECB System 3 PSZ Occ Sch Summer Design Da\n   **   ~~~   ** Will be processed as Alpha=SP-ICU_NURSESTN_LOBBY_FLR_2 SYS-3 FLR-4 SCH-H HPLCMT-CORE ZN NECB SYSTEM 3 PSZ OCC SCH SUMMER DESIGN DAY\n   ************* IDF Context for following error/warning message:\n   ************* Note -- lines truncated at 300 characters, if necessary...\n   *************   7461 Schedule:Day:Interval,\n   ************* indicated Name=Sp-ICU_NurseStn_Lobby_Flr_2 Sys-3 Flr-4 Sch-H HPlcmt-core ZN NECB System 3 PSZ Occ Sch Winter Design Day\n   ************* Only last 1 lines before error line shown.....\n   *************   7462   Sp-ICU_NurseStn_Lobby_Flr_2 Sys-3 Flr-4 Sch-H HPlcmt-core ZN NECB System 3 PSZ Occ Sch Winter Design Day, !- Name\n   ** Warning ** IP: IDF line~7462 Alpha Argument length exceeds maximum, will be truncated=  Sp-ICU_NurseStn_Lobby_Flr_2 Sys-3 Flr-4 Sch-H HPlcmt-core ZN NECB System 3 PSZ Occ Sch Winter Design Da\n   **   ~~~   ** Will be processed as Alpha=SP-ICU_NURSESTN_LOBBY_FLR_2 SYS-3 FLR-4 SCH-H HPLCMT-CORE ZN NECB SYSTEM 3 PSZ OCC SCH WINTER DESIGN DAY\n   ************* IDF Context for following error/warning message:\n   ************* Note -- lines truncated at 300 characters, if necessary...\n   *************   8272 Schedule:Week:Daily,\n   ************* indicated Name=Schedule:Week:Daily {20d95138-1799-4685-8d49-61e00fda22c2}\n   ************* Only last 10 lines before error line shown.....\n   *************   8273   Schedule:Week:Daily {20d95138-1799-4685-8d49-61e00fda22c2}, !- Name\n   *************   8274   Sp-IC_PatRoom3_Mult6_Flr_2 Sys-3 Flr-4 Sch-H HPlcmt-west ZN NECB System 3 PSZ Occ Sch Sunday, !- Sunday Schedule:Day Name\n   *************   8275   Sp-IC_PatRoom3_Mult6_Flr_2 Sys-3 Flr-4 Sch-H HPlcmt-west ZN NECB System 3 PSZ Occ Sch Monday, !- Monday Schedule:Day Name\n   *************   8276   Sp-IC_PatRoom3_Mult6_Flr_2 Sys-3 Flr-4 Sch-H HPlcmt-west ZN NECB System 3 PSZ Occ Sch Tuesday, !- Tuesday Schedule:Day Name\n   *************   8277   Sp-IC_PatRoom3_Mult6_Flr_2 Sys-3 Flr-4 Sch-H HPlcmt-west ZN NECB System 3 PSZ Occ Sch Wednesday, !- Wednesday Schedule:Day Name\n   *************   8278   Sp-IC_PatRoom3_Mult6_Flr_2 Sys-3 Flr-4 Sch-H HPlcmt-west ZN NECB System 3 PSZ Occ Sch Thursday, !- Thursday Schedule:Day Name\n   *************   8279   Sp-IC_PatRoom3_Mult6_Flr_2 Sys-3 Flr-4 Sch-H HPlcmt-west ZN NECB System 3 PSZ Occ Sch Friday, !- Friday Schedule:Day Name\n   *************   8280   Sp-IC_PatRoom3_Mult6_Flr_2 Sys-3 Flr-4 Sch-H HPlcmt-west ZN NECB System 3 PSZ Occ Sch Saturday, !- Saturday Schedule:Day Name\n   *************   8281   Sp-IC_PatRoom3_Mult6_Flr_2 Sys-3 Flr-4 Sch-H HPlcmt-west ZN NECB System 3 PSZ Occ Sch Default, !- Holiday Schedule:Day Name\n   *************   8282   Sp-IC_PatRoom3_Mult6_Flr_2 Sys-3 Flr-4 Sch-H HPlcmt-west ZN NECB System 3 PSZ Occ Sch Summer Design Day, !- SummerDesignDay Schedule:Day Name\n   ** Warning ** IP: IDF line~8282 Alpha Argument length exceeds maximum, will be truncated=  Sp-IC_PatRoom3_Mult6_Flr_2 Sys-3 Flr-4 Sch-H HPlcmt-west ZN NECB System 3 PSZ Occ Sch Summer Design Da\n   **   ~~~   ** Will be processed as Alpha=SP-IC_PATROOM3_MULT6_FLR_2 SYS-3 FLR-4 SCH-H HPLCMT-WEST ZN NECB SYSTEM 3 PSZ OCC SCH SUMMER DESIGN DAY\n   ************* IDF Context for following error/warning message:\n   ************* Note -- lines truncated at 300 characters, if necessary...\n   *************   8272 Schedule:Week:Daily,\n   ************* indicated Name=Schedule:Week:Daily {20d95138-1799-4685-8d49-61e00fda22c2}\n   ************* Only last 10 lines before error line shown.....\n   *************   8274   Sp-IC_PatRoom3_Mult6_Flr_2 Sys-3 Flr-4 Sch-H HPlcmt-west ZN NECB System 3 PSZ Occ Sch Sunday, !- Sunday Schedule:Day Name\n   *************   8275   Sp-IC_PatRoom3_Mult6_Flr_2 Sys-3 Flr-4 Sch-H HPlcmt-west ZN NECB System 3 PSZ Occ Sch Monday, !- Monday Schedule:Day Name\n   *************   8276   Sp-IC_PatRoom3_Mult6_Flr_2 Sys-3 Flr-4 Sch-H HPlcmt-west ZN NECB System 3 PSZ Occ Sch Tuesday, !- Tuesday Schedule:Day Name\n   *************   8277   Sp-IC_PatRoom3_Mult6_Flr_2 Sys-3 Flr-4 Sch-H HPlcmt-west ZN NECB System 3 PSZ Occ Sch Wednesday, !- Wednesday Schedule:Day Name\n   *************   8278   Sp-IC_PatRoom3_Mult6_Flr_2 Sys-3 Flr-4 Sch-H HPlcmt-west ZN NECB System 3 PSZ Occ Sch Thursday, !- Thursday Schedule:Day Name\n   *************   8279   Sp-IC_PatRoom3_Mult6_Flr_2 Sys-3 Flr-4 Sch-H HPlcmt-west ZN NECB System 3 PSZ Occ Sch Friday, !- Friday Schedule:Day Name\n   *************   8280   Sp-IC_PatRoom3_Mult6_Flr_2 Sys-3 Flr-4 Sch-H HPlcmt-west ZN NECB System 3 PSZ Occ Sch Saturday, !- Saturday Schedule:Day Name\n   *************   8281   Sp-IC_PatRoom3_Mult6_Flr_2 Sys-3 Flr-4 Sch-H HPlcmt-west ZN NECB System 3 PSZ Occ Sch Default, !- Holiday Schedule:Day Name\n   *************   8282   Sp-IC_PatRoom3_Mult6_Flr_2 Sys-3 Flr-4 Sch-H HPlcmt-west ZN NECB System 3 PSZ Occ Sch Summer Design Day, !- SummerDesignDay Schedule:Day Name\n   *************   8283   Sp-IC_PatRoom3_Mult6_Flr_2 Sys-3 Flr-4 Sch-H HPlcmt-west ZN NECB System 3 PSZ Occ Sch Winter Design Day, !- WinterDesignDay Schedule:Day Name\n   ** Warning ** IP: IDF line~8283 Alpha Argument length exceeds maximum, will be truncated=  Sp-IC_PatRoom3_Mult6_Flr_2 Sys-3 Flr-4 Sch-H HPlcmt-west ZN NECB System 3 PSZ Occ Sch Winter Design Da\n   **   ~~~   ** Will be processed as Alpha=SP-IC_PATROOM3_MULT6_FLR_2 SYS-3 FLR-4 SCH-H HPLCMT-WEST ZN NECB SYSTEM 3 PSZ OCC SCH WINTER DESIGN DAY\n   ************* IDF Context for following error/warning message:\n   ************* Note -- lines truncated at 300 characters, if necessary...\n   *************   8303 Schedule:Day:Interval,\n   ************* indicated Name=Sp-IC_PatRoom3_Mult6_Flr_2 Sys-3 Flr-4 Sch-H HPlcmt-west ZN NECB System 3 PSZ Occ Sch Summer Design Day\n   ************* Only last 1 lines before error line shown.....\n   *************   8304   Sp-IC_PatRoom3_Mult6_Flr_2 Sys-3 Flr-4 Sch-H HPlcmt-west ZN NECB System 3 PSZ Occ Sch Summer Design Day, !- Name\n   ** Warning ** IP: IDF line~8304 Alpha Argument length exceeds maximum, will be truncated=  Sp-IC_PatRoom3_Mult6_Flr_2 Sys-3 Flr-4 Sch-H HPlcmt-west ZN NECB System 3 PSZ Occ Sch Summer Design Da\n   **   ~~~   ** Will be processed as Alpha=SP-IC_PATROOM3_MULT6_FLR_2 SYS-3 FLR-4 SCH-H HPLCMT-WEST ZN NECB SYSTEM 3 PSZ OCC SCH SUMMER DESIGN DAY\n   ************* IDF Context for following error/warning message:\n   ************* Note -- lines truncated at 300 characters, if necessary...\n   *************   8310 Schedule:Day:Interval,\n   ************* indicated Name=Sp-IC_PatRoom3_Mult6_Flr_2 Sys-3 Flr-4 Sch-H HPlcmt-west ZN NECB System 3 PSZ Occ Sch Winter Design Day\n   ************* Only last 1 lines before error line shown.....\n   *************   8311   Sp-IC_PatRoom3_Mult6_Flr_2 Sys-3 Flr-4 Sch-H HPlcmt-west ZN NECB System 3 PSZ Occ Sch Winter Design Day, !- Name\n   ** Warning ** IP: IDF line~8311 Alpha Argument length exceeds maximum, will be truncated=  Sp-IC_PatRoom3_Mult6_Flr_2 Sys-3 Flr-4 Sch-H HPlcmt-west ZN NECB System 3 PSZ Occ Sch Winter Design Da\n   **   ~~~   ** Will be processed as Alpha=SP-IC_PATROOM3_MULT6_FLR_2 SYS-3 FLR-4 SCH-H HPLCMT-WEST ZN NECB SYSTEM 3 PSZ OCC SCH WINTER DESIGN DAY\n   ************* IDF Context for following error/warning message:\n   ************* Note -- lines truncated at 300 characters, if necessary...\n   *************  10967 Schedule:Week:Daily,\n   ************* indicated Name=Schedule:Week:Daily {3e04fffa-0551-419c-8d88-bbb90ab12d1f}\n   ************* Only last 10 lines before error line shown.....\n   *************  10968   Schedule:Week:Daily {3e04fffa-0551-419c-8d88-bbb90ab12d1f}, !- Name\n   *************  10969   Sp-NurseStn_Lobby_Flr_5 Sys-3 Flr-6 Sch-H HPlcmt-south ZN NECB System 3 PSZ Occ Sch Sunday, !- Sunday Schedule:Day Name\n   *************  10970   Sp-NurseStn_Lobby_Flr_5 Sys-3 Flr-6 Sch-H HPlcmt-south ZN NECB System 3 PSZ Occ Sch Monday, !- Monday Schedule:Day Name\n   *************  10971   Sp-NurseStn_Lobby_Flr_5 Sys-3 Flr-6 Sch-H HPlcmt-south ZN NECB System 3 PSZ Occ Sch Tuesday, !- Tuesday Schedule:Day Name\n   *************  10972   Sp-NurseStn_Lobby_Flr_5 Sys-3 Flr-6 Sch-H HPlcmt-south ZN NECB System 3 PSZ Occ Sch Wednesday, !- Wednesday Schedule:Day Name\n   *************  10973   Sp-NurseStn_Lobby_Flr_5 Sys-3 Flr-6 Sch-H HPlcmt-south ZN NECB System 3 PSZ Occ Sch Thursday, !- Thursday Schedule:Day Name\n   *************  10974   Sp-NurseStn_Lobby_Flr_5 Sys-3 Flr-6 Sch-H HPlcmt-south ZN NECB System 3 PSZ Occ Sch Friday, !- Friday Schedule:Day Name\n   *************  10975   Sp-NurseStn_Lobby_Flr_5 Sys-3 Flr-6 Sch-H HPlcmt-south ZN NECB System 3 PSZ Occ Sch Saturday, !- Saturday Schedule:Day Name\n   *************  10976   Sp-NurseStn_Lobby_Flr_5 Sys-3 Flr-6 Sch-H HPlcmt-south ZN NECB System 3 PSZ Occ Sch Default, !- Holiday Schedule:Day Name\n   *************  10977   Sp-NurseStn_Lobby_Flr_5 Sys-3 Flr-6 Sch-H HPlcmt-south ZN NECB System 3 PSZ Occ Sch Summer Design Day, !- SummerDesignDay Schedule:Day Name\n   ** Warning ** IP: IDF line~10977 Alpha Argument length exceeds maximum, will be truncated=  Sp-NurseStn_Lobby_Flr_5 Sys-3 Flr-6 Sch-H HPlcmt-south ZN NECB System 3 PSZ Occ Sch Summer Design Da\n   **   ~~~   ** Will be processed as Alpha=SP-NURSESTN_LOBBY_FLR_5 SYS-3 FLR-6 SCH-H HPLCMT-SOUTH ZN NECB SYSTEM 3 PSZ OCC SCH SUMMER DESIGN DAY\n   ************* IDF Context for following error/warning message:\n   ************* Note -- lines truncated at 300 characters, if necessary...\n   *************  10967 Schedule:Week:Daily,\n   ************* indicated Name=Schedule:Week:Daily {3e04fffa-0551-419c-8d88-bbb90ab12d1f}\n   ************* Only last 10 lines before error line shown.....\n   *************  10969   Sp-NurseStn_Lobby_Flr_5 Sys-3 Flr-6 Sch-H HPlcmt-south ZN NECB System 3 PSZ Occ Sch Sunday, !- Sunday Schedule:Day Name\n   *************  10970   Sp-NurseStn_Lobby_Flr_5 Sys-3 Flr-6 Sch-H HPlcmt-south ZN NECB System 3 PSZ Occ Sch Monday, !- Monday Schedule:Day Name\n   *************  10971   Sp-NurseStn_Lobby_Flr_5 Sys-3 Flr-6 Sch-H HPlcmt-south ZN NECB System 3 PSZ Occ Sch Tuesday, !- Tuesday Schedule:Day Name\n   *************  10972   Sp-NurseStn_Lobby_Flr_5 Sys-3 Flr-6 Sch-H HPlcmt-south ZN NECB System 3 PSZ Occ Sch Wednesday, !- Wednesday Schedule:Day Name\n   *************  10973   Sp-NurseStn_Lobby_Flr_5 Sys-3 Flr-6 Sch-H HPlcmt-south ZN NECB System 3 PSZ Occ Sch Thursday, !- Thursday Schedule:Day Name\n   *************  10974   Sp-NurseStn_Lobby_Flr_5 Sys-3 Flr-6 Sch-H HPlcmt-south ZN NECB System 3 PSZ Occ Sch Friday, !- Friday Schedule:Day Name\n   *************  10975   Sp-NurseStn_Lobby_Flr_5 Sys-3 Flr-6 Sch-H HPlcmt-south ZN NECB System 3 PSZ Occ Sch Saturday, !- Saturday Schedule:Day Name\n   *************  10976   Sp-NurseStn_Lobby_Flr_5 Sys-3 Flr-6 Sch-H HPlcmt-south ZN NECB System 3 PSZ Occ Sch Default, !- Holiday Schedule:Day Name\n   *************  10977   Sp-NurseStn_Lobby_Flr_5 Sys-3 Flr-6 Sch-H HPlcmt-south ZN NECB System 3 PSZ Occ Sch Summer Design Day, !- SummerDesignDay Schedule:Day Name\n   *************  10978   Sp-NurseStn_Lobby_Flr_5 Sys-3 Flr-6 Sch-H HPlcmt-south ZN NECB System 3 PSZ Occ Sch Winter Design Day, !- WinterDesignDay Schedule:Day Name\n   ** Warning ** IP: IDF line~10978 Alpha Argument length exceeds maximum, will be truncated=  Sp-NurseStn_Lobby_Flr_5 Sys-3 Flr-6 Sch-H HPlcmt-south ZN NECB System 3 PSZ Occ Sch Winter Design Da\n   **   ~~~   ** Will be processed as Alpha=SP-NURSESTN_LOBBY_FLR_5 SYS-3 FLR-6 SCH-H HPLCMT-SOUTH ZN NECB SYSTEM 3 PSZ OCC SCH WINTER DESIGN DAY\n   ************* IDF Context for following error/warning message:\n   ************* Note -- lines truncated at 300 characters, if necessary...\n   *************  10998 Schedule:Day:Interval,\n   ************* indicated Name=Sp-NurseStn_Lobby_Flr_5 Sys-3 Flr-6 Sch-H HPlcmt-south ZN NECB System 3 PSZ Occ Sch Summer Design Day\n   ************* Only last 1 lines before error line shown.....\n   *************  10999   Sp-NurseStn_Lobby_Flr_5 Sys-3 Flr-6 Sch-H HPlcmt-south ZN NECB System 3 PSZ Occ Sch Summer Design Day, !- Name\n   ** Warning ** IP: IDF line~10999 Alpha Argument length exceeds maximum, will be truncated=  Sp-NurseStn_Lobby_Flr_5 Sys-3 Flr-6 Sch-H HPlcmt-south ZN NECB System 3 PSZ Occ Sch Summer Design Da\n   **   ~~~   ** Will be processed as Alpha=SP-NURSESTN_LOBBY_FLR_5 SYS-3 FLR-6 SCH-H HPLCMT-SOUTH ZN NECB SYSTEM 3 PSZ OCC SCH SUMMER DESIGN DAY\n   ************* IDF Context for following error/warning message:\n   ************* Note -- lines truncated at 300 characters, if necessary...\n   *************  11005 Schedule:Day:Interval,\n   ************* indicated Name=Sp-NurseStn_Lobby_Flr_5 Sys-3 Flr-6 Sch-H HPlcmt-south ZN NECB System 3 PSZ Occ Sch Winter Design Day\n   ************* Only last 1 lines before error line shown.....\n   *************  11006   Sp-NurseStn_Lobby_Flr_5 Sys-3 Flr-6 Sch-H HPlcmt-south ZN NECB System 3 PSZ Occ Sch Winter Design Day, !- Name\n   ** Warning ** IP: IDF line~11006 Alpha Argument length exceeds maximum, will be truncated=  Sp-NurseStn_Lobby_Flr_5 Sys-3 Flr-6 Sch-H HPlcmt-south ZN NECB System 3 PSZ Occ Sch Winter Design Da\n   **   ~~~   ** Will be processed as Alpha=SP-NURSESTN_LOBBY_FLR_5 SYS-3 FLR-6 SCH-H HPLCMT-SOUTH ZN NECB SYSTEM 3 PSZ OCC SCH WINTER DESIGN DAY\n   ************* IDF Context for following error/warning message:\n   ************* Note -- lines truncated at 300 characters, if necessary...\n   *************  14142 Schedule:Week:Daily,\n   ************* indicated Name=Schedule:Week:Daily {8b13e0af-637a-458c-a92e-56c3d2987b41}\n   ************* Only last 10 lines before error line shown.....\n   *************  14143   Schedule:Week:Daily {8b13e0af-637a-458c-a92e-56c3d2987b41}, !- Name\n   *************  14144   Sp-OR_NurseStn_Lobby_Flr_2 Sys-3 Flr-4 Sch-H HPlcmt-south ZN NECB System 3 PSZ Occ Sch Sunday, !- Sunday Schedule:Day Name\n   *************  14145   Sp-OR_NurseStn_Lobby_Flr_2 Sys-3 Flr-4 Sch-H HPlcmt-south ZN NECB System 3 PSZ Occ Sch Monday, !- Monday Schedule:Day Name\n   *************  14146   Sp-OR_NurseStn_Lobby_Flr_2 Sys-3 Flr-4 Sch-H HPlcmt-south ZN NECB System 3 PSZ Occ Sch Tuesday, !- Tuesday Schedule:Day Name\n   *************  14147   Sp-OR_NurseStn_Lobby_Flr_2 Sys-3 Flr-4 Sch-H HPlcmt-south ZN NECB System 3 PSZ Occ Sch Wednesday, !- Wednesday Schedule:Day Name\n   *************  14148   Sp-OR_NurseStn_Lobby_Flr_2 Sys-3 Flr-4 Sch-H HPlcmt-south ZN NECB System 3 PSZ Occ Sch Thursday, !- Thursday Schedule:Day Name\n   *************  14149   Sp-OR_NurseStn_Lobby_Flr_2 Sys-3 Flr-4 Sch-H HPlcmt-south ZN NECB System 3 PSZ Occ Sch Friday, !- Friday Schedule:Day Name\n   *************  14150   Sp-OR_NurseStn_Lobby_Flr_2 Sys-3 Flr-4 Sch-H HPlcmt-south ZN NECB System 3 PSZ Occ Sch Saturday, !- Saturday Schedule:Day Name\n   *************  14151   Sp-OR_NurseStn_Lobby_Flr_2 Sys-3 Flr-4 Sch-H HPlcmt-south ZN NECB System 3 PSZ Occ Sch Default, !- Holiday Schedule:Day Name\n   *************  14152   Sp-OR_NurseStn_Lobby_Flr_2 Sys-3 Flr-4 Sch-H HPlcmt-south ZN NECB System 3 PSZ Occ Sch Summer Design Day, !- SummerDesignDay Schedule:Day Name\n   ** Warning ** IP: IDF line~14152 Alpha Argument length exceeds maximum, will be truncated=  Sp-OR_NurseStn_Lobby_Flr_2 Sys-3 Flr-4 Sch-H HPlcmt-south ZN NECB System 3 PSZ Occ Sch Summer Design Da\n   **   ~~~   ** Will be processed as Alpha=SP-OR_NURSESTN_LOBBY_FLR_2 SYS-3 FLR-4 SCH-H HPLCMT-SOUTH ZN NECB SYSTEM 3 PSZ OCC SCH SUMMER DESIGN DAY\n   ************* IDF Context for following error/warning message:\n   ************* Note -- lines truncated at 300 characters, if necessary...\n   *************  14142 Schedule:Week:Daily,\n   ************* indicated Name=Schedule:Week:Daily {8b13e0af-637a-458c-a92e-56c3d2987b41}\n   ************* Only last 10 lines before error line shown.....\n   *************  14144   Sp-OR_NurseStn_Lobby_Flr_2 Sys-3 Flr-4 Sch-H HPlcmt-south ZN NECB System 3 PSZ Occ Sch Sunday, !- Sunday Schedule:Day Name\n   *************  14145   Sp-OR_NurseStn_Lobby_Flr_2 Sys-3 Flr-4 Sch-H HPlcmt-south ZN NECB System 3 PSZ Occ Sch Monday, !- Monday Schedule:Day Name\n   *************  14146   Sp-OR_NurseStn_Lobby_Flr_2 Sys-3 Flr-4 Sch-H HPlcmt-south ZN NECB System 3 PSZ Occ Sch Tuesday, !- Tuesday Schedule:Day Name\n   *************  14147   Sp-OR_NurseStn_Lobby_Flr_2 Sys-3 Flr-4 Sch-H HPlcmt-south ZN NECB System 3 PSZ Occ Sch Wednesday, !- Wednesday Schedule:Day Name\n   *************  14148   Sp-OR_NurseStn_Lobby_Flr_2 Sys-3 Flr-4 Sch-H HPlcmt-south ZN NECB System 3 PSZ Occ Sch Thursday, !- Thursday Schedule:Day Name\n   *************  14149   Sp-OR_NurseStn_Lobby_Flr_2 Sys-3 Flr-4 Sch-H HPlcmt-south ZN NECB System 3 PSZ Occ Sch Friday, !- Friday Schedule:Day Name\n   *************  14150   Sp-OR_NurseStn_Lobby_Flr_2 Sys-3 Flr-4 Sch-H HPlcmt-south ZN NECB System 3 PSZ Occ Sch Saturday, !- Saturday Schedule:Day Name\n   *************  14151   Sp-OR_NurseStn_Lobby_Flr_2 Sys-3 Flr-4 Sch-H HPlcmt-south ZN NECB System 3 PSZ Occ Sch Default, !- Holiday Schedule:Day Name\n   *************  14152   Sp-OR_NurseStn_Lobby_Flr_2 Sys-3 Flr-4 Sch-H HPlcmt-south ZN NECB System 3 PSZ Occ Sch Summer Design Day, !- SummerDesignDay Schedule:Day Name\n   *************  14153   Sp-OR_NurseStn_Lobby_Flr_2 Sys-3 Flr-4 Sch-H HPlcmt-south ZN NECB System 3 PSZ Occ Sch Winter Design Day, !- WinterDesignDay Schedule:Day Name\n   ** Warning ** IP: IDF line~14153 Alpha Argument length exceeds maximum, will be truncated=  Sp-OR_NurseStn_Lobby_Flr_2 Sys-3 Flr-4 Sch-H HPlcmt-south ZN NECB System 3 PSZ Occ Sch Winter Design Da\n   **   ~~~   ** Will be processed as Alpha=SP-OR_NURSESTN_LOBBY_FLR_2 SYS-3 FLR-4 SCH-H HPLCMT-SOUTH ZN NECB SYSTEM 3 PSZ OCC SCH WINTER DESIGN DAY\n   ************* IDF Context for following error/warning message:\n   ************* Note -- lines truncated at 300 characters, if necessary...\n   *************  14173 Schedule:Day:Interval,\n   ************* indicated Name=Sp-OR_NurseStn_Lobby_Flr_2 Sys-3 Flr-4 Sch-H HPlcmt-south ZN NECB System 3 PSZ Occ Sch Summer Design Day\n   ************* Only last 1 lines before error line shown.....\n   *************  14174   Sp-OR_NurseStn_Lobby_Flr_2 Sys-3 Flr-4 Sch-H HPlcmt-south ZN NECB System 3 PSZ Occ Sch Summer Design Day, !- Name\n   ** Warning ** IP: IDF line~14174 Alpha Argument length exceeds maximum, will be truncated=  Sp-OR_NurseStn_Lobby_Flr_2 Sys-3 Flr-4 Sch-H HPlcmt-south ZN NECB System 3 PSZ Occ Sch Summer Design Da\n   **   ~~~   ** Will be processed as Alpha=SP-OR_NURSESTN_LOBBY_FLR_2 SYS-3 FLR-4 SCH-H HPLCMT-SOUTH ZN NECB SYSTEM 3 PSZ OCC SCH SUMMER DESIGN DAY\n   ************* IDF Context for following error/warning message:\n   ************* Note -- lines truncated at 300 characters, if necessary...\n   *************  14180 Schedule:Day:Interval,\n   ************* indicated Name=Sp-OR_NurseStn_Lobby_Flr_2 Sys-3 Flr-4 Sch-H HPlcmt-south ZN NECB System 3 PSZ Occ Sch Winter Design Day\n   ************* Only last 1 lines before error line shown.....\n   *************  14181   Sp-OR_NurseStn_Lobby_Flr_2 Sys-3 Flr-4 Sch-H HPlcmt-south ZN NECB System 3 PSZ Occ Sch Winter Design Day, !- Name\n   ** Warning ** IP: IDF line~14181 Alpha Argument length exceeds maximum, will be truncated=  Sp-OR_NurseStn_Lobby_Flr_2 Sys-3 Flr-4 Sch-H HPlcmt-south ZN NECB System 3 PSZ Occ Sch Winter Design Da\n   **   ~~~   ** Will be processed as Alpha=SP-OR_NURSESTN_LOBBY_FLR_2 SYS-3 FLR-4 SCH-H HPLCMT-SOUTH ZN NECB SYSTEM 3 PSZ OCC SCH WINTER DESIGN DAY\n   ************* IDF Context for following error/warning message:\n   ************* Note -- lines truncated at 300 characters, if necessary...\n   *************  14485 Schedule:Week:Daily,\n   ************* indicated Name=Schedule:Week:Daily {9abe7709-65bc-46cc-87fd-add2ff4758c2}\n   ************* Only last 10 lines before error line shown.....\n   *************  14486   Schedule:Week:Daily {9abe7709-65bc-46cc-87fd-add2ff4758c2}, !- Name\n   *************  14487   Sp-PatRoom1_Mult10_Flr_3 Sys-3 Flr-2 Sch-H HPlcmt-south ZN NECB System 3 PSZ Occ Sch Sunday, !- Sunday Schedule:Day Name\n   *************  14488   Sp-PatRoom1_Mult10_Flr_3 Sys-3 Flr-2 Sch-H HPlcmt-south ZN NECB System 3 PSZ Occ Sch Monday, !- Monday Schedule:Day Name\n   *************  14489   Sp-PatRoom1_Mult10_Flr_3 Sys-3 Flr-2 Sch-H HPlcmt-south ZN NECB System 3 PSZ Occ Sch Tuesday, !- Tuesday Schedule:Day Name\n   *************  14490   Sp-PatRoom1_Mult10_Flr_3 Sys-3 Flr-2 Sch-H HPlcmt-south ZN NECB System 3 PSZ Occ Sch Wednesday, !- Wednesday Schedule:Day Name\n   *************  14491   Sp-PatRoom1_Mult10_Flr_3 Sys-3 Flr-2 Sch-H HPlcmt-south ZN NECB System 3 PSZ Occ Sch Thursday, !- Thursday Schedule:Day Name\n   *************  14492   Sp-PatRoom1_Mult10_Flr_3 Sys-3 Flr-2 Sch-H HPlcmt-south ZN NECB System 3 PSZ Occ Sch Friday, !- Friday Schedule:Day Name\n   *************  14493   Sp-PatRoom1_Mult10_Flr_3 Sys-3 Flr-2 Sch-H HPlcmt-south ZN NECB System 3 PSZ Occ Sch Saturday, !- Saturday Schedule:Day Name\n   *************  14494   Sp-PatRoom1_Mult10_Flr_3 Sys-3 Flr-2 Sch-H HPlcmt-south ZN NECB System 3 PSZ Occ Sch Default, !- Holiday Schedule:Day Name\n   *************  14495   Sp-PatRoom1_Mult10_Flr_3 Sys-3 Flr-2 Sch-H HPlcmt-south ZN NECB System 3 PSZ Occ Sch Summer Design Day, !- SummerDesignDay Schedule:Day Name\n   ** Warning ** IP: IDF line~14495 Alpha Argument length exceeds maximum, will be truncated=  Sp-PatRoom1_Mult10_Flr_3 Sys-3 Flr-2 Sch-H HPlcmt-south ZN NECB System 3 PSZ Occ Sch Summer Design Da\n   **   ~~~   ** Will be processed as Alpha=SP-PATROOM1_MULT10_FLR_3 SYS-3 FLR-2 SCH-H HPLCMT-SOUTH ZN NECB SYSTEM 3 PSZ OCC SCH SUMMER DESIGN DAY\n   ************* IDF Context for following error/warning message:\n   ************* Note -- lines truncated at 300 characters, if necessary...\n   *************  14485 Schedule:Week:Daily,\n   ************* indicated Name=Schedule:Week:Daily {9abe7709-65bc-46cc-87fd-add2ff4758c2}\n   ************* Only last 10 lines before error line shown.....\n   *************  14487   Sp-PatRoom1_Mult10_Flr_3 Sys-3 Flr-2 Sch-H HPlcmt-south ZN NECB System 3 PSZ Occ Sch Sunday, !- Sunday Schedule:Day Name\n   *************  14488   Sp-PatRoom1_Mult10_Flr_3 Sys-3 Flr-2 Sch-H HPlcmt-south ZN NECB System 3 PSZ Occ Sch Monday, !- Monday Schedule:Day Name\n   *************  14489   Sp-PatRoom1_Mult10_Flr_3 Sys-3 Flr-2 Sch-H HPlcmt-south ZN NECB System 3 PSZ Occ Sch Tuesday, !- Tuesday Schedule:Day Name\n   *************  14490   Sp-PatRoom1_Mult10_Flr_3 Sys-3 Flr-2 Sch-H HPlcmt-south ZN NECB System 3 PSZ Occ Sch Wednesday, !- Wednesday Schedule:Day Name\n   *************  14491   Sp-PatRoom1_Mult10_Flr_3 Sys-3 Flr-2 Sch-H HPlcmt-south ZN NECB System 3 PSZ Occ Sch Thursday, !- Thursday Schedule:Day Name\n   *************  14492   Sp-PatRoom1_Mult10_Flr_3 Sys-3 Flr-2 Sch-H HPlcmt-south ZN NECB System 3 PSZ Occ Sch Friday, !- Friday Schedule:Day Name\n   *************  14493   Sp-PatRoom1_Mult10_Flr_3 Sys-3 Flr-2 Sch-H HPlcmt-south ZN NECB System 3 PSZ Occ Sch Saturday, !- Saturday Schedule:Day Name\n   *************  14494   Sp-PatRoom1_Mult10_Flr_3 Sys-3 Flr-2 Sch-H HPlcmt-south ZN NECB System 3 PSZ Occ Sch Default, !- Holiday Schedule:Day Name\n   *************  14495   Sp-PatRoom1_Mult10_Flr_3 Sys-3 Flr-2 Sch-H HPlcmt-south ZN NECB System 3 PSZ Occ Sch Summer Design Day, !- SummerDesignDay Schedule:Day Name\n   *************  14496   Sp-PatRoom1_Mult10_Flr_3 Sys-3 Flr-2 Sch-H HPlcmt-south ZN NECB System 3 PSZ Occ Sch Winter Design Day, !- WinterDesignDay Schedule:Day Name\n   ** Warning ** IP: IDF line~14496 Alpha Argument length exceeds maximum, will be truncated=  Sp-PatRoom1_Mult10_Flr_3 Sys-3 Flr-2 Sch-H HPlcmt-south ZN NECB System 3 PSZ Occ Sch Winter Design Da\n   **   ~~~   ** Will be processed as Alpha=SP-PATROOM1_MULT10_FLR_3 SYS-3 FLR-2 SCH-H HPLCMT-SOUTH ZN NECB SYSTEM 3 PSZ OCC SCH WINTER DESIGN DAY\n   ************* IDF Context for following error/warning message:\n   ************* Note -- lines truncated at 300 characters, if necessary...\n   *************  14516 Schedule:Day:Interval,\n   ************* indicated Name=Sp-PatRoom1_Mult10_Flr_3 Sys-3 Flr-2 Sch-H HPlcmt-south ZN NECB System 3 PSZ Occ Sch Summer Design Day\n   ************* Only last 1 lines before error line shown.....\n   *************  14517   Sp-PatRoom1_Mult10_Flr_3 Sys-3 Flr-2 Sch-H HPlcmt-south ZN NECB System 3 PSZ Occ Sch Summer Design Day, !- Name\n   ** Warning ** IP: IDF line~14517 Alpha Argument length exceeds maximum, will be truncated=  Sp-PatRoom1_Mult10_Flr_3 Sys-3 Flr-2 Sch-H HPlcmt-south ZN NECB System 3 PSZ Occ Sch Summer Design Da\n   **   ~~~   ** Will be processed as Alpha=SP-PATROOM1_MULT10_FLR_3 SYS-3 FLR-2 SCH-H HPLCMT-SOUTH ZN NECB SYSTEM 3 PSZ OCC SCH SUMMER DESIGN DAY\n   ************* IDF Context for following error/warning message:\n   ************* Note -- lines truncated at 300 characters, if necessary...\n   *************  14523 Schedule:Day:Interval,\n   ************* indicated Name=Sp-PatRoom1_Mult10_Flr_3 Sys-3 Flr-2 Sch-H HPlcmt-south ZN NECB System 3 PSZ Occ Sch Winter Design Day\n   ************* Only last 1 lines before error line shown.....\n   *************  14524   Sp-PatRoom1_Mult10_Flr_3 Sys-3 Flr-2 Sch-H HPlcmt-south ZN NECB System 3 PSZ Occ Sch Winter Design Day, !- Name\n   ** Warning ** IP: IDF line~14524 Alpha Argument length exceeds maximum, will be truncated=  Sp-PatRoom1_Mult10_Flr_3 Sys-3 Flr-2 Sch-H HPlcmt-south ZN NECB System 3 PSZ Occ Sch Winter Design Da\n   **   ~~~   ** Will be processed as Alpha=SP-PATROOM1_MULT10_FLR_3 SYS-3 FLR-2 SCH-H HPLCMT-SOUTH ZN NECB SYSTEM 3 PSZ OCC SCH WINTER DESIGN DAY\n   ************* IDF Context for following error/warning message:\n   ************* Note -- lines truncated at 300 characters, if necessary...\n   *************  14828 Schedule:Week:Daily,\n   ************* indicated Name=Schedule:Week:Daily {ec176ea1-b1b9-4c17-86d2-74950bdc3bb2}\n   ************* Only last 10 lines before error line shown.....\n   *************  14829   Schedule:Week:Daily {ec176ea1-b1b9-4c17-86d2-74950bdc3bb2}, !- Name\n   *************  14830   Sp-PatRoom1_Mult10_Flr_4 Sys-3 Flr-3 Sch-H HPlcmt-south ZN NECB System 3 PSZ Occ Sch Sunday, !- Sunday Schedule:Day Name\n   *************  14831   Sp-PatRoom1_Mult10_Flr_4 Sys-3 Flr-3 Sch-H HPlcmt-south ZN NECB System 3 PSZ Occ Sch Monday, !- Monday Schedule:Day Name\n   *************  14832   Sp-PatRoom1_Mult10_Flr_4 Sys-3 Flr-3 Sch-H HPlcmt-south ZN NECB System 3 PSZ Occ Sch Tuesday, !- Tuesday Schedule:Day Name\n   *************  14833   Sp-PatRoom1_Mult10_Flr_4 Sys-3 Flr-3 Sch-H HPlcmt-south ZN NECB System 3 PSZ Occ Sch Wednesday, !- Wednesday Schedule:Day Name\n   *************  14834   Sp-PatRoom1_Mult10_Flr_4 Sys-3 Flr-3 Sch-H HPlcmt-south ZN NECB System 3 PSZ Occ Sch Thursday, !- Thursday Schedule:Day Name\n   *************  14835   Sp-PatRoom1_Mult10_Flr_4 Sys-3 Flr-3 Sch-H HPlcmt-south ZN NECB System 3 PSZ Occ Sch Friday, !- Friday Schedule:Day Name\n   *************  14836   Sp-PatRoom1_Mult10_Flr_4 Sys-3 Flr-3 Sch-H HPlcmt-south ZN NECB System 3 PSZ Occ Sch Saturday, !- Saturday Schedule:Day Name\n   *************  14837   Sp-PatRoom1_Mult10_Flr_4 Sys-3 Flr-3 Sch-H HPlcmt-south ZN NECB System 3 PSZ Occ Sch Default, !- Holiday Schedule:Day Name\n   *************  14838   Sp-PatRoom1_Mult10_Flr_4 Sys-3 Flr-3 Sch-H HPlcmt-south ZN NECB System 3 PSZ Occ Sch Summer Design Day, !- SummerDesignDay Schedule:Day Name\n   ** Warning ** IP: IDF line~14838 Alpha Argument length exceeds maximum, will be truncated=  Sp-PatRoom1_Mult10_Flr_4 Sys-3 Flr-3 Sch-H HPlcmt-south ZN NECB System 3 PSZ Occ Sch Summer Design Da\n   **   ~~~   ** Will be processed as Alpha=SP-PATROOM1_MULT10_FLR_4 SYS-3 FLR-3 SCH-H HPLCMT-SOUTH ZN NECB SYSTEM 3 PSZ OCC SCH SUMMER DESIGN DAY\n   ************* IDF Context for following error/warning message:\n   ************* Note -- lines truncated at 300 characters, if necessary...\n   *************  14828 Schedule:Week:Daily,\n   ************* indicated Name=Schedule:Week:Daily {ec176ea1-b1b9-4c17-86d2-74950bdc3bb2}\n   ************* Only last 10 lines before error line shown.....\n   *************  14830   Sp-PatRoom1_Mult10_Flr_4 Sys-3 Flr-3 Sch-H HPlcmt-south ZN NECB System 3 PSZ Occ Sch Sunday, !- Sunday Schedule:Day Name\n   *************  14831   Sp-PatRoom1_Mult10_Flr_4 Sys-3 Flr-3 Sch-H HPlcmt-south ZN NECB System 3 PSZ Occ Sch Monday, !- Monday Schedule:Day Name\n   *************  14832   Sp-PatRoom1_Mult10_Flr_4 Sys-3 Flr-3 Sch-H HPlcmt-south ZN NECB System 3 PSZ Occ Sch Tuesday, !- Tuesday Schedule:Day Name\n   *************  14833   Sp-PatRoom1_Mult10_Flr_4 Sys-3 Flr-3 Sch-H HPlcmt-south ZN NECB System 3 PSZ Occ Sch Wednesday, !- Wednesday Schedule:Day Name\n   *************  14834   Sp-PatRoom1_Mult10_Flr_4 Sys-3 Flr-3 Sch-H HPlcmt-south ZN NECB System 3 PSZ Occ Sch Thursday, !- Thursday Schedule:Day Name\n   *************  14835   Sp-PatRoom1_Mult10_Flr_4 Sys-3 Flr-3 Sch-H HPlcmt-south ZN NECB System 3 PSZ Occ Sch Friday, !- Friday Schedule:Day Name\n   *************  14836   Sp-PatRoom1_Mult10_Flr_4 Sys-3 Flr-3 Sch-H HPlcmt-south ZN NECB System 3 PSZ Occ Sch Saturday, !- Saturday Schedule:Day Name\n   *************  14837   Sp-PatRoom1_Mult10_Flr_4 Sys-3 Flr-3 Sch-H HPlcmt-south ZN NECB System 3 PSZ Occ Sch Default, !- Holiday Schedule:Day Name\n   *************  14838   Sp-PatRoom1_Mult10_Flr_4 Sys-3 Flr-3 Sch-H HPlcmt-south ZN NECB System 3 PSZ Occ Sch Summer Design Day, !- SummerDesignDay Schedule:Day Name\n   *************  14839   Sp-PatRoom1_Mult10_Flr_4 Sys-3 Flr-3 Sch-H HPlcmt-south ZN NECB System 3 PSZ Occ Sch Winter Design Day, !- WinterDesignDay Schedule:Day Name\n   ** Warning ** IP: IDF line~14839 Alpha Argument length exceeds maximum, will be truncated=  Sp-PatRoom1_Mult10_Flr_4 Sys-3 Flr-3 Sch-H HPlcmt-south ZN NECB System 3 PSZ Occ Sch Winter Design Da\n   **   ~~~   ** Will be processed as Alpha=SP-PATROOM1_MULT10_FLR_4 SYS-3 FLR-3 SCH-H HPLCMT-SOUTH ZN NECB SYSTEM 3 PSZ OCC SCH WINTER DESIGN DAY\n   ************* IDF Context for following error/warning message:\n   ************* Note -- lines truncated at 300 characters, if necessary...\n   *************  14859 Schedule:Day:Interval,\n   ************* indicated Name=Sp-PatRoom1_Mult10_Flr_4 Sys-3 Flr-3 Sch-H HPlcmt-south ZN NECB System 3 PSZ Occ Sch Summer Design Day\n   ************* Only last 1 lines before error line shown.....\n   *************  14860   Sp-PatRoom1_Mult10_Flr_4 Sys-3 Flr-3 Sch-H HPlcmt-south ZN NECB System 3 PSZ Occ Sch Summer Design Day, !- Name\n   ** Warning ** IP: IDF line~14860 Alpha Argument length exceeds maximum, will be truncated=  Sp-PatRoom1_Mult10_Flr_4 Sys-3 Flr-3 Sch-H HPlcmt-south ZN NECB System 3 PSZ Occ Sch Summer Design Da\n   **   ~~~   ** Will be processed as Alpha=SP-PATROOM1_MULT10_FLR_4 SYS-3 FLR-3 SCH-H HPLCMT-SOUTH ZN NECB SYSTEM 3 PSZ OCC SCH SUMMER DESIGN DAY\n   ************* IDF Context for following error/warning message:\n   ************* Note -- lines truncated at 300 characters, if necessary...\n   *************  14866 Schedule:Day:Interval,\n   ************* indicated Name=Sp-PatRoom1_Mult10_Flr_4 Sys-3 Flr-3 Sch-H HPlcmt-south ZN NECB System 3 PSZ Occ Sch Winter Design Day\n   ************* Only last 1 lines before error line shown.....\n   *************  14867   Sp-PatRoom1_Mult10_Flr_4 Sys-3 Flr-3 Sch-H HPlcmt-south ZN NECB System 3 PSZ Occ Sch Winter Design Day, !- Name\n   ** Warning ** IP: IDF line~14867 Alpha Argument length exceeds maximum, will be truncated=  Sp-PatRoom1_Mult10_Flr_4 Sys-3 Flr-3 Sch-H HPlcmt-south ZN NECB System 3 PSZ Occ Sch Winter Design Da\n   **   ~~~   ** Will be processed as Alpha=SP-PATROOM1_MULT10_FLR_4 SYS-3 FLR-3 SCH-H HPLCMT-SOUTH ZN NECB SYSTEM 3 PSZ OCC SCH WINTER DESIGN DAY\n   ************* IDF Context for following error/warning message:\n   ************* Note -- lines truncated at 300 characters, if necessary...\n   *************  15733 Schedule:Week:Daily,\n   ************* indicated Name=Schedule:Week:Daily {4c127633-8dbd-4192-9a7e-ef635da3963f}\n   ************* Only last 10 lines before error line shown.....\n   *************  15734   Schedule:Week:Daily {4c127633-8dbd-4192-9a7e-ef635da3963f}, !- Name\n   *************  15735   Sp-PatRoom3_Mult10_Flr_3 Sys-3 Flr-2 Sch-H HPlcmt-east ZN NECB System 3 PSZ Occ Sch Sunday, !- Sunday Schedule:Day Name\n   *************  15736   Sp-PatRoom3_Mult10_Flr_3 Sys-3 Flr-2 Sch-H HPlcmt-east ZN NECB System 3 PSZ Occ Sch Monday, !- Monday Schedule:Day Name\n   *************  15737   Sp-PatRoom3_Mult10_Flr_3 Sys-3 Flr-2 Sch-H HPlcmt-east ZN NECB System 3 PSZ Occ Sch Tuesday, !- Tuesday Schedule:Day Name\n   *************  15738   Sp-PatRoom3_Mult10_Flr_3 Sys-3 Flr-2 Sch-H HPlcmt-east ZN NECB System 3 PSZ Occ Sch Wednesday, !- Wednesday Schedule:Day Name\n   *************  15739   Sp-PatRoom3_Mult10_Flr_3 Sys-3 Flr-2 Sch-H HPlcmt-east ZN NECB System 3 PSZ Occ Sch Thursday, !- Thursday Schedule:Day Name\n   *************  15740   Sp-PatRoom3_Mult10_Flr_3 Sys-3 Flr-2 Sch-H HPlcmt-east ZN NECB System 3 PSZ Occ Sch Friday, !- Friday Schedule:Day Name\n   *************  15741   Sp-PatRoom3_Mult10_Flr_3 Sys-3 Flr-2 Sch-H HPlcmt-east ZN NECB System 3 PSZ Occ Sch Saturday, !- Saturday Schedule:Day Name\n   *************  15742   Sp-PatRoom3_Mult10_Flr_3 Sys-3 Flr-2 Sch-H HPlcmt-east ZN NECB System 3 PSZ Occ Sch Default, !- Holiday Schedule:Day Name\n   *************  15743   Sp-PatRoom3_Mult10_Flr_3 Sys-3 Flr-2 Sch-H HPlcmt-east ZN NECB System 3 PSZ Occ Sch Summer Design Day, !- SummerDesignDay Schedule:Day Name\n   ** Warning ** IP: IDF line~15743 Alpha Argument length exceeds maximum, will be truncated=  Sp-PatRoom3_Mult10_Flr_3 Sys-3 Flr-2 Sch-H HPlcmt-east ZN NECB System 3 PSZ Occ Sch Summer Design Da\n   **   ~~~   ** Will be processed as Alpha=SP-PATROOM3_MULT10_FLR_3 SYS-3 FLR-2 SCH-H HPLCMT-EAST ZN NECB SYSTEM 3 PSZ OCC SCH SUMMER DESIGN DAY\n   ************* IDF Context for following error/warning message:\n   ************* Note -- lines truncated at 300 characters, if necessary...\n   *************  15733 Schedule:Week:Daily,\n   ************* indicated Name=Schedule:Week:Daily {4c127633-8dbd-4192-9a7e-ef635da3963f}\n   ************* Only last 10 lines before error line shown.....\n   *************  15735   Sp-PatRoom3_Mult10_Flr_3 Sys-3 Flr-2 Sch-H HPlcmt-east ZN NECB System 3 PSZ Occ Sch Sunday, !- Sunday Schedule:Day Name\n   *************  15736   Sp-PatRoom3_Mult10_Flr_3 Sys-3 Flr-2 Sch-H HPlcmt-east ZN NECB System 3 PSZ Occ Sch Monday, !- Monday Schedule:Day Name\n   *************  15737   Sp-PatRoom3_Mult10_Flr_3 Sys-3 Flr-2 Sch-H HPlcmt-east ZN NECB System 3 PSZ Occ Sch Tuesday, !- Tuesday Schedule:Day Name\n   *************  15738   Sp-PatRoom3_Mult10_Flr_3 Sys-3 Flr-2 Sch-H HPlcmt-east ZN NECB System 3 PSZ Occ Sch Wednesday, !- Wednesday Schedule:Day Name\n   *************  15739   Sp-PatRoom3_Mult10_Flr_3 Sys-3 Flr-2 Sch-H HPlcmt-east ZN NECB System 3 PSZ Occ Sch Thursday, !- Thursday Schedule:Day Name\n   *************  15740   Sp-PatRoom3_Mult10_Flr_3 Sys-3 Flr-2 Sch-H HPlcmt-east ZN NECB System 3 PSZ Occ Sch Friday, !- Friday Schedule:Day Name\n   *************  15741   Sp-PatRoom3_Mult10_Flr_3 Sys-3 Flr-2 Sch-H HPlcmt-east ZN NECB System 3 PSZ Occ Sch Saturday, !- Saturday Schedule:Day Name\n   *************  15742   Sp-PatRoom3_Mult10_Flr_3 Sys-3 Flr-2 Sch-H HPlcmt-east ZN NECB System 3 PSZ Occ Sch Default, !- Holiday Schedule:Day Name\n   *************  15743   Sp-PatRoom3_Mult10_Flr_3 Sys-3 Flr-2 Sch-H HPlcmt-east ZN NECB System 3 PSZ Occ Sch Summer Design Day, !- SummerDesignDay Schedule:Day Name\n   *************  15744   Sp-PatRoom3_Mult10_Flr_3 Sys-3 Flr-2 Sch-H HPlcmt-east ZN NECB System 3 PSZ Occ Sch Winter Design Day, !- WinterDesignDay Schedule:Day Name\n   ** Warning ** IP: IDF line~15744 Alpha Argument length exceeds maximum, will be truncated=  Sp-PatRoom3_Mult10_Flr_3 Sys-3 Flr-2 Sch-H HPlcmt-east ZN NECB System 3 PSZ Occ Sch Winter Design Da\n   **   ~~~   ** Will be processed as Alpha=SP-PATROOM3_MULT10_FLR_3 SYS-3 FLR-2 SCH-H HPLCMT-EAST ZN NECB SYSTEM 3 PSZ OCC SCH WINTER DESIGN DAY\n   ************* IDF Context for following error/warning message:\n   ************* Note -- lines truncated at 300 characters, if necessary...\n   *************  15764 Schedule:Day:Interval,\n   ************* indicated Name=Sp-PatRoom3_Mult10_Flr_3 Sys-3 Flr-2 Sch-H HPlcmt-east ZN NECB System 3 PSZ Occ Sch Summer Design Day\n   ************* Only last 1 lines before error line shown.....\n   *************  15765   Sp-PatRoom3_Mult10_Flr_3 Sys-3 Flr-2 Sch-H HPlcmt-east ZN NECB System 3 PSZ Occ Sch Summer Design Day, !- Name\n   ** Warning ** IP: IDF line~15765 Alpha Argument length exceeds maximum, will be truncated=  Sp-PatRoom3_Mult10_Flr_3 Sys-3 Flr-2 Sch-H HPlcmt-east ZN NECB System 3 PSZ Occ Sch Summer Design Da\n   **   ~~~   ** Will be processed as Alpha=SP-PATROOM3_MULT10_FLR_3 SYS-3 FLR-2 SCH-H HPLCMT-EAST ZN NECB SYSTEM 3 PSZ OCC SCH SUMMER DESIGN DAY\n   ************* IDF Context for following error/warning message:\n   ************* Note -- lines truncated at 300 characters, if necessary...\n   *************  15771 Schedule:Day:Interval,\n   ************* indicated Name=Sp-PatRoom3_Mult10_Flr_3 Sys-3 Flr-2 Sch-H HPlcmt-east ZN NECB System 3 PSZ Occ Sch Winter Design Day\n   ************* Only last 1 lines before error line shown.....\n   *************  15772   Sp-PatRoom3_Mult10_Flr_3 Sys-3 Flr-2 Sch-H HPlcmt-east ZN NECB System 3 PSZ Occ Sch Winter Design Day, !- Name\n   ** Warning ** IP: IDF line~15772 Alpha Argument length exceeds maximum, will be truncated=  Sp-PatRoom3_Mult10_Flr_3 Sys-3 Flr-2 Sch-H HPlcmt-east ZN NECB System 3 PSZ Occ Sch Winter Design Da\n   **   ~~~   ** Will be processed as Alpha=SP-PATROOM3_MULT10_FLR_3 SYS-3 FLR-2 SCH-H HPLCMT-EAST ZN NECB SYSTEM 3 PSZ OCC SCH WINTER DESIGN DAY\n   ************* IDF Context for following error/warning message:\n   ************* Note -- lines truncated at 300 characters, if necessary...\n   *************  16076 Schedule:Week:Daily,\n   ************* indicated Name=Schedule:Week:Daily {2b8b48a1-1230-443b-b09f-93cfd57cbcdf}\n   ************* Only last 10 lines before error line shown.....\n   *************  16077   Schedule:Week:Daily {2b8b48a1-1230-443b-b09f-93cfd57cbcdf}, !- Name\n   *************  16078   Sp-PatRoom3_Mult10_Flr_4 Sys-3 Flr-3 Sch-H HPlcmt-east ZN NECB System 3 PSZ Occ Sch Sunday, !- Sunday Schedule:Day Name\n   *************  16079   Sp-PatRoom3_Mult10_Flr_4 Sys-3 Flr-3 Sch-H HPlcmt-east ZN NECB System 3 PSZ Occ Sch Monday, !- Monday Schedule:Day Name\n   *************  16080   Sp-PatRoom3_Mult10_Flr_4 Sys-3 Flr-3 Sch-H HPlcmt-east ZN NECB System 3 PSZ Occ Sch Tuesday, !- Tuesday Schedule:Day Name\n   *************  16081   Sp-PatRoom3_Mult10_Flr_4 Sys-3 Flr-3 Sch-H HPlcmt-east ZN NECB System 3 PSZ Occ Sch Wednesday, !- Wednesday Schedule:Day Name\n   *************  16082   Sp-PatRoom3_Mult10_Flr_4 Sys-3 Flr-3 Sch-H HPlcmt-east ZN NECB System 3 PSZ Occ Sch Thursday, !- Thursday Schedule:Day Name\n   *************  16083   Sp-PatRoom3_Mult10_Flr_4 Sys-3 Flr-3 Sch-H HPlcmt-east ZN NECB System 3 PSZ Occ Sch Friday, !- Friday Schedule:Day Name\n   *************  16084   Sp-PatRoom3_Mult10_Flr_4 Sys-3 Flr-3 Sch-H HPlcmt-east ZN NECB System 3 PSZ Occ Sch Saturday, !- Saturday Schedule:Day Name\n   *************  16085   Sp-PatRoom3_Mult10_Flr_4 Sys-3 Flr-3 Sch-H HPlcmt-east ZN NECB System 3 PSZ Occ Sch Default, !- Holiday Schedule:Day Name\n   *************  16086   Sp-PatRoom3_Mult10_Flr_4 Sys-3 Flr-3 Sch-H HPlcmt-east ZN NECB System 3 PSZ Occ Sch Summer Design Day, !- SummerDesignDay Schedule:Day Name\n   ** Warning ** IP: IDF line~16086 Alpha Argument length exceeds maximum, will be truncated=  Sp-PatRoom3_Mult10_Flr_4 Sys-3 Flr-3 Sch-H HPlcmt-east ZN NECB System 3 PSZ Occ Sch Summer Design Da\n   **   ~~~   ** Will be processed as Alpha=SP-PATROOM3_MULT10_FLR_4 SYS-3 FLR-3 SCH-H HPLCMT-EAST ZN NECB SYSTEM 3 PSZ OCC SCH SUMMER DESIGN DAY\n   ************* IDF Context for following error/warning message:\n   ************* Note -- lines truncated at 300 characters, if necessary...\n   *************  16076 Schedule:Week:Daily,\n   ************* indicated Name=Schedule:Week:Daily {2b8b48a1-1230-443b-b09f-93cfd57cbcdf}\n   ************* Only last 10 lines before error line shown.....\n   *************  16078   Sp-PatRoom3_Mult10_Flr_4 Sys-3 Flr-3 Sch-H HPlcmt-east ZN NECB System 3 PSZ Occ Sch Sunday, !- Sunday Schedule:Day Name\n   *************  16079   Sp-PatRoom3_Mult10_Flr_4 Sys-3 Flr-3 Sch-H HPlcmt-east ZN NECB System 3 PSZ Occ Sch Monday, !- Monday Schedule:Day Name\n   *************  16080   Sp-PatRoom3_Mult10_Flr_4 Sys-3 Flr-3 Sch-H HPlcmt-east ZN NECB System 3 PSZ Occ Sch Tuesday, !- Tuesday Schedule:Day Name\n   *************  16081   Sp-PatRoom3_Mult10_Flr_4 Sys-3 Flr-3 Sch-H HPlcmt-east ZN NECB System 3 PSZ Occ Sch Wednesday, !- Wednesday Schedule:Day Name\n   *************  16082   Sp-PatRoom3_Mult10_Flr_4 Sys-3 Flr-3 Sch-H HPlcmt-east ZN NECB System 3 PSZ Occ Sch Thursday, !- Thursday Schedule:Day Name\n   *************  16083   Sp-PatRoom3_Mult10_Flr_4 Sys-3 Flr-3 Sch-H HPlcmt-east ZN NECB System 3 PSZ Occ Sch Friday, !- Friday Schedule:Day Name\n   *************  16084   Sp-PatRoom3_Mult10_Flr_4 Sys-3 Flr-3 Sch-H HPlcmt-east ZN NECB System 3 PSZ Occ Sch Saturday, !- Saturday Schedule:Day Name\n   *************  16085   Sp-PatRoom3_Mult10_Flr_4 Sys-3 Flr-3 Sch-H HPlcmt-east ZN NECB System 3 PSZ Occ Sch Default, !- Holiday Schedule:Day Name\n   *************  16086   Sp-PatRoom3_Mult10_Flr_4 Sys-3 Flr-3 Sch-H HPlcmt-east ZN NECB System 3 PSZ Occ Sch Summer Design Day, !- SummerDesignDay Schedule:Day Name\n   *************  16087   Sp-PatRoom3_Mult10_Flr_4 Sys-3 Flr-3 Sch-H HPlcmt-east ZN NECB System 3 PSZ Occ Sch Winter Design Day, !- WinterDesignDay Schedule:Day Name\n   ** Warning ** IP: IDF line~16087 Alpha Argument length exceeds maximum, will be truncated=  Sp-PatRoom3_Mult10_Flr_4 Sys-3 Flr-3 Sch-H HPlcmt-east ZN NECB System 3 PSZ Occ Sch Winter Design Da\n   **   ~~~   ** Will be processed as Alpha=SP-PATROOM3_MULT10_FLR_4 SYS-3 FLR-3 SCH-H HPLCMT-EAST ZN NECB SYSTEM 3 PSZ OCC SCH WINTER DESIGN DAY\n   ************* IDF Context for following error/warning message:\n   ************* Note -- lines truncated at 300 characters, if necessary...\n   *************  16107 Schedule:Day:Interval,\n   ************* indicated Name=Sp-PatRoom3_Mult10_Flr_4 Sys-3 Flr-3 Sch-H HPlcmt-east ZN NECB System 3 PSZ Occ Sch Summer Design Day\n   ************* Only last 1 lines before error line shown.....\n   *************  16108   Sp-PatRoom3_Mult10_Flr_4 Sys-3 Flr-3 Sch-H HPlcmt-east ZN NECB System 3 PSZ Occ Sch Summer Design Day, !- Name\n   ** Warning ** IP: IDF line~16108 Alpha Argument length exceeds maximum, will be truncated=  Sp-PatRoom3_Mult10_Flr_4 Sys-3 Flr-3 Sch-H HPlcmt-east ZN NECB System 3 PSZ Occ Sch Summer Design Da\n   **   ~~~   ** Will be processed as Alpha=SP-PATROOM3_MULT10_FLR_4 SYS-3 FLR-3 SCH-H HPLCMT-EAST ZN NECB SYSTEM 3 PSZ OCC SCH SUMMER DESIGN DAY\n   ************* IDF Context for following error/warning message:\n   ************* Note -- lines truncated at 300 characters, if necessary...\n   *************  16114 Schedule:Day:Interval,\n   ************* indicated Name=Sp-PatRoom3_Mult10_Flr_4 Sys-3 Flr-3 Sch-H HPlcmt-east ZN NECB System 3 PSZ Occ Sch Winter Design Day\n   ************* Only last 1 lines before error line shown.....\n   *************  16115   Sp-PatRoom3_Mult10_Flr_4 Sys-3 Flr-3 Sch-H HPlcmt-east ZN NECB System 3 PSZ Occ Sch Winter Design Day, !- Name\n   ** Warning ** IP: IDF line~16115 Alpha Argument length exceeds maximum, will be truncated=  Sp-PatRoom3_Mult10_Flr_4 Sys-3 Flr-3 Sch-H HPlcmt-east ZN NECB System 3 PSZ Occ Sch Winter Design Da\n   **   ~~~   ** Will be processed as Alpha=SP-PATROOM3_MULT10_FLR_4 SYS-3 FLR-3 SCH-H HPLCMT-EAST ZN NECB SYSTEM 3 PSZ OCC SCH WINTER DESIGN DAY\n   ************* IDF Context for following error/warning message:\n   ************* Note -- lines truncated at 300 characters, if necessary...\n   *************  16981 Schedule:Week:Daily,\n   ************* indicated Name=Schedule:Week:Daily {1d55089b-5b0f-42f9-92ec-f41d6a5f2591}\n   ************* Only last 10 lines before error line shown.....\n   *************  16982   Schedule:Week:Daily {1d55089b-5b0f-42f9-92ec-f41d6a5f2591}, !- Name\n   *************  16983   Sp-PatRoom5_Mult10_Flr_3 Sys-3 Flr-2 Sch-H HPlcmt-north ZN NECB System 3 PSZ Occ Sch Sunday, !- Sunday Schedule:Day Name\n   *************  16984   Sp-PatRoom5_Mult10_Flr_3 Sys-3 Flr-2 Sch-H HPlcmt-north ZN NECB System 3 PSZ Occ Sch Monday, !- Monday Schedule:Day Name\n   *************  16985   Sp-PatRoom5_Mult10_Flr_3 Sys-3 Flr-2 Sch-H HPlcmt-north ZN NECB System 3 PSZ Occ Sch Tuesday, !- Tuesday Schedule:Day Name\n   *************  16986   Sp-PatRoom5_Mult10_Flr_3 Sys-3 Flr-2 Sch-H HPlcmt-north ZN NECB System 3 PSZ Occ Sch Wednesday, !- Wednesday Schedule:Day Name\n   *************  16987   Sp-PatRoom5_Mult10_Flr_3 Sys-3 Flr-2 Sch-H HPlcmt-north ZN NECB System 3 PSZ Occ Sch Thursday, !- Thursday Schedule:Day Name\n   *************  16988   Sp-PatRoom5_Mult10_Flr_3 Sys-3 Flr-2 Sch-H HPlcmt-north ZN NECB System 3 PSZ Occ Sch Friday, !- Friday Schedule:Day Name\n   *************  16989   Sp-PatRoom5_Mult10_Flr_3 Sys-3 Flr-2 Sch-H HPlcmt-north ZN NECB System 3 PSZ Occ Sch Saturday, !- Saturday Schedule:Day Name\n   *************  16990   Sp-PatRoom5_Mult10_Flr_3 Sys-3 Flr-2 Sch-H HPlcmt-north ZN NECB System 3 PSZ Occ Sch Default, !- Holiday Schedule:Day Name\n   *************  16991   Sp-PatRoom5_Mult10_Flr_3 Sys-3 Flr-2 Sch-H HPlcmt-north ZN NECB System 3 PSZ Occ Sch Summer Design Day, !- SummerDesignDay Schedule:Day Name\n   ** Warning ** IP: IDF line~16991 Alpha Argument length exceeds maximum, will be truncated=  Sp-PatRoom5_Mult10_Flr_3 Sys-3 Flr-2 Sch-H HPlcmt-north ZN NECB System 3 PSZ Occ Sch Summer Design Da\n   **   ~~~   ** Will be processed as Alpha=SP-PATROOM5_MULT10_FLR_3 SYS-3 FLR-2 SCH-H HPLCMT-NORTH ZN NECB SYSTEM 3 PSZ OCC SCH SUMMER DESIGN DAY\n   ************* IDF Context for following error/warning message:\n   ************* Note -- lines truncated at 300 characters, if necessary...\n   *************  16981 Schedule:Week:Daily,\n   ************* indicated Name=Schedule:Week:Daily {1d55089b-5b0f-42f9-92ec-f41d6a5f2591}\n   ************* Only last 10 lines before error line shown.....\n   *************  16983   Sp-PatRoom5_Mult10_Flr_3 Sys-3 Flr-2 Sch-H HPlcmt-north ZN NECB System 3 PSZ Occ Sch Sunday, !- Sunday Schedule:Day Name\n   *************  16984   Sp-PatRoom5_Mult10_Flr_3 Sys-3 Flr-2 Sch-H HPlcmt-north ZN NECB System 3 PSZ Occ Sch Monday, !- Monday Schedule:Day Name\n   *************  16985   Sp-PatRoom5_Mult10_Flr_3 Sys-3 Flr-2 Sch-H HPlcmt-north ZN NECB System 3 PSZ Occ Sch Tuesday, !- Tuesday Schedule:Day Name\n   *************  16986   Sp-PatRoom5_Mult10_Flr_3 Sys-3 Flr-2 Sch-H HPlcmt-north ZN NECB System 3 PSZ Occ Sch Wednesday, !- Wednesday Schedule:Day Name\n   *************  16987   Sp-PatRoom5_Mult10_Flr_3 Sys-3 Flr-2 Sch-H HPlcmt-north ZN NECB System 3 PSZ Occ Sch Thursday, !- Thursday Schedule:Day Name\n   *************  16988   Sp-PatRoom5_Mult10_Flr_3 Sys-3 Flr-2 Sch-H HPlcmt-north ZN NECB System 3 PSZ Occ Sch Friday, !- Friday Schedule:Day Name\n   *************  16989   Sp-PatRoom5_Mult10_Flr_3 Sys-3 Flr-2 Sch-H HPlcmt-north ZN NECB System 3 PSZ Occ Sch Saturday, !- Saturday Schedule:Day Name\n   *************  16990   Sp-PatRoom5_Mult10_Flr_3 Sys-3 Flr-2 Sch-H HPlcmt-north ZN NECB System 3 PSZ Occ Sch Default, !- Holiday Schedule:Day Name\n   *************  16991   Sp-PatRoom5_Mult10_Flr_3 Sys-3 Flr-2 Sch-H HPlcmt-north ZN NECB System 3 PSZ Occ Sch Summer Design Day, !- SummerDesignDay Schedule:Day Name\n   *************  16992   Sp-PatRoom5_Mult10_Flr_3 Sys-3 Flr-2 Sch-H HPlcmt-north ZN NECB System 3 PSZ Occ Sch Winter Design Day, !- WinterDesignDay Schedule:Day Name\n   ** Warning ** IP: IDF line~16992 Alpha Argument length exceeds maximum, will be truncated=  Sp-PatRoom5_Mult10_Flr_3 Sys-3 Flr-2 Sch-H HPlcmt-north ZN NECB System 3 PSZ Occ Sch Winter Design Da\n   **   ~~~   ** Will be processed as Alpha=SP-PATROOM5_MULT10_FLR_3 SYS-3 FLR-2 SCH-H HPLCMT-NORTH ZN NECB SYSTEM 3 PSZ OCC SCH WINTER DESIGN DAY\n   ************* IDF Context for following error/warning message:\n   ************* Note -- lines truncated at 300 characters, if necessary...\n   *************  17012 Schedule:Day:Interval,\n   ************* indicated Name=Sp-PatRoom5_Mult10_Flr_3 Sys-3 Flr-2 Sch-H HPlcmt-north ZN NECB System 3 PSZ Occ Sch Summer Design Day\n   ************* Only last 1 lines before error line shown.....\n   *************  17013   Sp-PatRoom5_Mult10_Flr_3 Sys-3 Flr-2 Sch-H HPlcmt-north ZN NECB System 3 PSZ Occ Sch Summer Design Day, !- Name\n   ** Warning ** IP: IDF line~17013 Alpha Argument length exceeds maximum, will be truncated=  Sp-PatRoom5_Mult10_Flr_3 Sys-3 Flr-2 Sch-H HPlcmt-north ZN NECB System 3 PSZ Occ Sch Summer Design Da\n   **   ~~~   ** Will be processed as Alpha=SP-PATROOM5_MULT10_FLR_3 SYS-3 FLR-2 SCH-H HPLCMT-NORTH ZN NECB SYSTEM 3 PSZ OCC SCH SUMMER DESIGN DAY\n   ************* IDF Context for following error/warning message:\n   ************* Note -- lines truncated at 300 characters, if necessary...\n   *************  17019 Schedule:Day:Interval,\n   ************* indicated Name=Sp-PatRoom5_Mult10_Flr_3 Sys-3 Flr-2 Sch-H HPlcmt-north ZN NECB System 3 PSZ Occ Sch Winter Design Day\n   ************* Only last 1 lines before error line shown.....\n   *************  17020   Sp-PatRoom5_Mult10_Flr_3 Sys-3 Flr-2 Sch-H HPlcmt-north ZN NECB System 3 PSZ Occ Sch Winter Design Day, !- Name\n   ** Warning ** IP: IDF line~17020 Alpha Argument length exceeds maximum, will be truncated=  Sp-PatRoom5_Mult10_Flr_3 Sys-3 Flr-2 Sch-H HPlcmt-north ZN NECB System 3 PSZ Occ Sch Winter Design Da\n   **   ~~~   ** Will be processed as Alpha=SP-PATROOM5_MULT10_FLR_3 SYS-3 FLR-2 SCH-H HPLCMT-NORTH ZN NECB SYSTEM 3 PSZ OCC SCH WINTER DESIGN DAY\n   ************* IDF Context for following error/warning message:\n   ************* Note -- lines truncated at 300 characters, if necessary...\n   *************  17324 Schedule:Week:Daily,\n   ************* indicated Name=Schedule:Week:Daily {68fb6e77-238a-477e-b140-3a66198a53da}\n   ************* Only last 10 lines before error line shown.....\n   *************  17325   Schedule:Week:Daily {68fb6e77-238a-477e-b140-3a66198a53da}, !- Name\n   *************  17326   Sp-PatRoom5_Mult10_Flr_4 Sys-3 Flr-3 Sch-H HPlcmt-north ZN NECB System 3 PSZ Occ Sch Sunday, !- Sunday Schedule:Day Name\n   *************  17327   Sp-PatRoom5_Mult10_Flr_4 Sys-3 Flr-3 Sch-H HPlcmt-north ZN NECB System 3 PSZ Occ Sch Monday, !- Monday Schedule:Day Name\n   *************  17328   Sp-PatRoom5_Mult10_Flr_4 Sys-3 Flr-3 Sch-H HPlcmt-north ZN NECB System 3 PSZ Occ Sch Tuesday, !- Tuesday Schedule:Day Name\n   *************  17329   Sp-PatRoom5_Mult10_Flr_4 Sys-3 Flr-3 Sch-H HPlcmt-north ZN NECB System 3 PSZ Occ Sch Wednesday, !- Wednesday Schedule:Day Name\n   *************  17330   Sp-PatRoom5_Mult10_Flr_4 Sys-3 Flr-3 Sch-H HPlcmt-north ZN NECB System 3 PSZ Occ Sch Thursday, !- Thursday Schedule:Day Name\n   *************  17331   Sp-PatRoom5_Mult10_Flr_4 Sys-3 Flr-3 Sch-H HPlcmt-north ZN NECB System 3 PSZ Occ Sch Friday, !- Friday Schedule:Day Name\n   *************  17332   Sp-PatRoom5_Mult10_Flr_4 Sys-3 Flr-3 Sch-H HPlcmt-north ZN NECB System 3 PSZ Occ Sch Saturday, !- Saturday Schedule:Day Name\n   *************  17333   Sp-PatRoom5_Mult10_Flr_4 Sys-3 Flr-3 Sch-H HPlcmt-north ZN NECB System 3 PSZ Occ Sch Default, !- Holiday Schedule:Day Name\n   *************  17334   Sp-PatRoom5_Mult10_Flr_4 Sys-3 Flr-3 Sch-H HPlcmt-north ZN NECB System 3 PSZ Occ Sch Summer Design Day, !- SummerDesignDay Schedule:Day Name\n   ** Warning ** IP: IDF line~17334 Alpha Argument length exceeds maximum, will be truncated=  Sp-PatRoom5_Mult10_Flr_4 Sys-3 Flr-3 Sch-H HPlcmt-north ZN NECB System 3 PSZ Occ Sch Summer Design Da\n   **   ~~~   ** Will be processed as Alpha=SP-PATROOM5_MULT10_FLR_4 SYS-3 FLR-3 SCH-H HPLCMT-NORTH ZN NECB SYSTEM 3 PSZ OCC SCH SUMMER DESIGN DAY\n   ************* IDF Context for following error/warning message:\n   ************* Note -- lines truncated at 300 characters, if necessary...\n   *************  17324 Schedule:Week:Daily,\n   ************* indicated Name=Schedule:Week:Daily {68fb6e77-238a-477e-b140-3a66198a53da}\n   ************* Only last 10 lines before error line shown.....\n   *************  17326   Sp-PatRoom5_Mult10_Flr_4 Sys-3 Flr-3 Sch-H HPlcmt-north ZN NECB System 3 PSZ Occ Sch Sunday, !- Sunday Schedule:Day Name\n   *************  17327   Sp-PatRoom5_Mult10_Flr_4 Sys-3 Flr-3 Sch-H HPlcmt-north ZN NECB System 3 PSZ Occ Sch Monday, !- Monday Schedule:Day Name\n   *************  17328   Sp-PatRoom5_Mult10_Flr_4 Sys-3 Flr-3 Sch-H HPlcmt-north ZN NECB System 3 PSZ Occ Sch Tuesday, !- Tuesday Schedule:Day Name\n   *************  17329   Sp-PatRoom5_Mult10_Flr_4 Sys-3 Flr-3 Sch-H HPlcmt-north ZN NECB System 3 PSZ Occ Sch Wednesday, !- Wednesday Schedule:Day Name\n   *************  17330   Sp-PatRoom5_Mult10_Flr_4 Sys-3 Flr-3 Sch-H HPlcmt-north ZN NECB System 3 PSZ Occ Sch Thursday, !- Thursday Schedule:Day Name\n   *************  17331   Sp-PatRoom5_Mult10_Flr_4 Sys-3 Flr-3 Sch-H HPlcmt-north ZN NECB System 3 PSZ Occ Sch Friday, !- Friday Schedule:Day Name\n   *************  17332   Sp-PatRoom5_Mult10_Flr_4 Sys-3 Flr-3 Sch-H HPlcmt-north ZN NECB System 3 PSZ Occ Sch Saturday, !- Saturday Schedule:Day Name\n   *************  17333   Sp-PatRoom5_Mult10_Flr_4 Sys-3 Flr-3 Sch-H HPlcmt-north ZN NECB System 3 PSZ Occ Sch Default, !- Holiday Schedule:Day Name\n   *************  17334   Sp-PatRoom5_Mult10_Flr_4 Sys-3 Flr-3 Sch-H HPlcmt-north ZN NECB System 3 PSZ Occ Sch Summer Design Day, !- SummerDesignDay Schedule:Day Name\n   *************  17335   Sp-PatRoom5_Mult10_Flr_4 Sys-3 Flr-3 Sch-H HPlcmt-north ZN NECB System 3 PSZ Occ Sch Winter Design Day, !- WinterDesignDay Schedule:Day Name\n   ** Warning ** IP: IDF line~17335 Alpha Argument length exceeds maximum, will be truncated=  Sp-PatRoom5_Mult10_Flr_4 Sys-3 Flr-3 Sch-H HPlcmt-north ZN NECB System 3 PSZ Occ Sch Winter Design Da\n   **   ~~~   ** Will be processed as Alpha=SP-PATROOM5_MULT10_FLR_4 SYS-3 FLR-3 SCH-H HPLCMT-NORTH ZN NECB SYSTEM 3 PSZ OCC SCH WINTER DESIGN DAY\n   ************* IDF Context for following error/warning message:\n   ************* Note -- lines truncated at 300 characters, if necessary...\n   *************  17355 Schedule:Day:Interval,\n   ************* indicated Name=Sp-PatRoom5_Mult10_Flr_4 Sys-3 Flr-3 Sch-H HPlcmt-north ZN NECB System 3 PSZ Occ Sch Summer Design Day\n   ************* Only last 1 lines before error line shown.....\n   *************  17356   Sp-PatRoom5_Mult10_Flr_4 Sys-3 Flr-3 Sch-H HPlcmt-north ZN NECB System 3 PSZ Occ Sch Summer Design Day, !- Name\n   ** Warning ** IP: IDF line~17356 Alpha Argument length exceeds maximum, will be truncated=  Sp-PatRoom5_Mult10
[...]
/Er+c/fTzQHw4OT/Rc3CaztrywVEpmkhCEYdRIoLZbToOhiIraRILJx6myYsXjDU8Ltte+Xm2MjtNca0/uUQymUWBmDpRLE/90Ekajpryt9KufLbvOtun1ZjlKdoz2fwSyhw/brbSy1P+mYV7FuyNN64cOTM/EdMoTOcw+aYp3ny/vz8YnJy82XDhGeAABzjAAQ5wgAMc4AAHOMD5a+KIeHab/gksXKl2CteZK6JIuqABDWhAAxrQgAY0oAENaEADmmKa++yrWX+iufZnEjjAAQ5wgAMc4AAHOMABDnCAUwXn6b2Btnpv4MWMem9gz87usB0f7+wcHIAUpCAFKUhBClKQghSkIAUpSEEK0tdB2s1InYQi7WSkvV63u78LUpCCFKQgBSlIQQpSkIIUpCAFKUhfB2lPkZ5GHkHaPchIbXtvr9cDKUhBClKQghSkIAUpSEEKUpCCFKSvg3RHkX6ezCjS/Yz0IN3670AKUpCCFKQgBSlIQQpSkIIUpCAF6esg7SvS36VLke5lpO/fDwZ7eyAFKUhBClKQghSkIAUpSEEKUpCC9HWQ7mafTMwkRbqbkQ4Gu7sgBSlIQQpSkIIUpCAFKUhBClKQgvS1kO4p0o8hVVmw289I9/e73X4fpCAFKUhBClKQghSkIAUpSEEKUpDWRrpEcSPnvlHq7KGdeIkvLybOVLYT+ZA03nwIZ1FcjjH/9sz33q0MYi8MfBlnHkpcbG+LY9cVjsg8iXsvmYg4vJXC7ZWcGd+N2850KgO3YSlta6vkhOXWdpIkalgPVlPsdgxPmqcndfVPipO5Lxd4LScYTsIoPd/y5ciANvcxCoOkdS+98SRRPq5D39X3seibi2nrk5Och+Ht3tXHmZ/YnatTP7raERfzuNUT6e/pz4vhpPVBfPjkD2+VXpyIf/8qfj0ZvFNHJfJW9MSni3+Ls+FQHfpmq6iD327Hw8ibJn8nj3m77Xp3L5vJc2hnqS/huUfWUI3+QdpgjhfI6Kpr71sia8Yjy/Xiqe/MD73AT22taz8cfv3RogFTr4trEMl8mp6vWnL7xrlzFnsLz1TbnROpkSqOhOvdTn3ZDuT9xd24YX3/AmRT7HQ62Y/S0FN+XSdxUseXf1i+cy1969By5chJO1ZMo3Dk+dJqLixXD9ah3e40rTvHn8n896GaodJz0klnMDg5sR6bWn66TH56TH52mPz0mfzsMvnZY/Kzz+TngMmP3eFyxDWiba4hbXONaZtrUNtco9rmGtY217i2uQa2zTWyu1wju8s2V3ON7C7XyO4ajWwRz25vV15ZrbWiRdI1cEO2kZkbsoXM3JDtY+aGjHszN2TUm7khY97MDRnxZm7IeDdzQy9khn6YxjG9jBn6YRrJ9CJm6IdpLNNLmKEfptFML2CGfpjGM718GfrhmpeZxjO9dhn60R/P916QmC9b12qXvh+yeQz9kM1j6IdsHkM/ZLgb+iHD3dAPGe6GfshwN/RDhruhH3r9MnXENaLpFczUEdeYptcwU0dco5pexUwdcY1reh0zdcQ1sumVzNQR21zNNbLpxczUkf7IfrqHUfqOYWqZ66z8obd4CTGDRHfzEr3NS+xsXqK/eYndzUvsbV5if/MSB5uXWFnZN6VRQ3wXfDDLp0F/ssWnQX/oxadBf9LLp0F/CMynQX8+zKdBf3TMp0F/qsy3/tUQ59061vEaFvJuDSt5t9pSXvoqR720avGuRwYJujfYJOjOYJOg+4JNgk6r2CTotIpNgk6r2CTotIpNgk6r2CQK7lzzadC3/vg06LSKT4NOq/g06LSKT4NOq/g06LSKT4NOq/g06LSKT4NOq/jWvxrivOAWP59GDQt5QVrFp1FtKS99Y5ZeWrV4pRaDBN0bbBJ0Z7BJ0H3BJkGnVWwSdFrFJkGnVWwSdFrFJkGnVWwSBWkVnwY93fJp0GkVnwadVvFp0GkVnwadVvFp0GkVnwadVvFp0GkVnwadVvGtfzXEeUFaxadRw0JekFbxaVRbyktfTKKXVi3eXMIgQfcGmwTdGWwSdF+wSdBpFZsEnVaxSdBpFZsEnVaxSdBpFZtEQVrFp0FPt3wadFrFp0GnVXwadFrFp0GnVXwadFrFp0GnVXwadFrFp0GnVXzrXw1xXpBW8WnUsJAXpFV8GtWW8tL673pp1aJAPIME3RtsEnRnsEnQfcEmQadVbBJ0WsUmQadVbBJ0WsUmQadVbBIFaRWfBj3d8mnQaRWfBp1W8WnQaRWfBp1W8WnQaRWfBp1W8WnQaRWfBp1W8a1/NcR5QVrFp1HDQl6QVvFpVFvKS8vs6qVVizq8DBJ0b7BJ0J3BJkH3BZsEnVaxSdBpFZsEnVaxSdBpFZsEnVaxSRSkVXwa9HTLp0GnVXwadFrFp0GnVXwadFrFp0GnVXwadFrFp0GnVXwadFrFt/7VEOcFaRWfRg0LeUFaxadRbSkvrWaol1Ytyh0ySNC9wSZBdwabBN0XbBJ0WsUmQadVbBJ0WsUmQadVbBJ0WsUmUVhsjUuDnm75NIoKWXFpFNW44tIoKn/FpVFU841Lo6gcHJdGUaU4Lo2iInJcGkX15bjWvxrivLAqHZdGDQt5QVrFp1G+lH/RqfCaF3IWRyKQ98sKslnh2EZ8N25mFWBLS8Uuq0HHMnkXzgI3bvQ7TWHb/aboqd+6fb1ysw8pxlORa9cdOIkch9H8+MGLF9WUn65fo+R06uAscmV0PlPFjbVPVBzzVY6P0olnkVxgqPrMebtvuNw3zDDDDDPMMMMMM8wwwwwzzDDDDDPMMMMMM8wwwwwzzDDDDDPMMMMMM8wwwwwzzDDDDDPMMMMMM8wwwwwzzDDDDDPMMMMMM8x/KfO8Hd7JKPJc+dFRD9ba7c6az6uqR2Pj1UdjL2TkyTh/vNZqLh8gnvph0va9QJY+Ihu/9Jxu+ZO1cTt79fw09J3EC4MUyooTOW1dy1EYSUvvyedf5FgG7uoFLfY1djtN0VNPLnfUg8zqh+XLUaLASlwv3bavxjI5CRLVPqnEaBYMM9LGlvijxMWSUD6dfVn6LLfavJFoJBMvbsdZr+gJqe3ZSe20/U6c4aTxH2BTb0t89eh4yp77vZqGsaccvk9361zNclNuXqCKwnszpCWWF7hSxUPLbhqevdxuqp448qSvxlsjb9NFnIyjcDaVrvjhB/Fdvv+hfTVx4vz5dxVgW8+t8xetaYO0nfH4VGm0fRmMk4l4K7riH8I69n1LHK4eEfveUDZa9tZl58tWabx9cyVhJBo36aV0fhQ3qUw+VHNdte9v6Yxj3kFqU8M493d586X9Vc7F0dHRovGqecy85t1+Y3qpy+06ks7XKic/Gp5jerxqr/zqjtSwVoMhHylZIYf2lRPH3jiQ7kCViIgvs5b8Uq0plx09ncWTRtW+SLv0cNGf1SPJ9w91rrKtjqyqEidR+FXq6SyOraoUTp2hl8z1pPKDK19VJrGUquplOZGsTitVwsN48lHbMpxXJx7RErapN5Nw02d9bGarqtbxj2U5hdq2t8Wn3z6Lf539di4uzs4///zrT+KXs59+HogPJ+cneg5O01lbPjgqRRNJKOIwSkQwu03HwVBkJU1i4cTDNHnxgrGGx2XbKz/PVmanKa71J5dIJrMoEFMniuWpHzpJw1FT/lbalc/2XWf7tBqzPEV7JptfQpnjx81WennKP7Nwz4K98caVI2fmJ2IahekcJt80xZvv9/cHg5OTNxsuPAMc4AAHOMABDnCAAxzgAAc4f00cEc9u0z+BhSvVTuE6c0UUSRc0oAENaEADGtCABjSgAQ1oQFNMc599NetPNNf+TAIHOMABDnCAAxzgAAc4wAEOcKrgPL030FbvDbyYUe8N7NnZHbbj452dgwOQghSkIAUpSEEKUpCCFKQgBSlIQfo6SLsZqZNQpJ2MtNfrdvd3QQpSkIIUpCAFKUhBClKQghSkIAXp6yDtKdLTyCNIuwcZqW3v7fV6IAUpSEEKUpCCFKQgBSlIQQpSkIL0dZDuKNLPkxlFup+RHqRb/x1IQQpSkIIUpCAFKUhBClKQghSkIH0dpH1F+rt0KdK9jPT9+8Fgbw+kIAUpSEEKUpCCFKQgBSlIQQpSkL4O0t3sk4mZpEh3M9LBYHcXpCAFKUhBClKQghSkIAUpSEEKUpC+FtI9RfoxpCoLdvsZ6f5+t9vvgxSkIAUpSEEKUpCCFKQgBSlIQQrS2kiXKG7k3DdKnT20Ey/x5cXEmcp2Ih+SxpsP4SyKyzHm35753ruVQeyFgS/jzEOJi+1tcey6whGZJ3HvJRMRh7dSuL2SM+O7cduZTmXgNiylbW2VnLDc2k6SRA3rwWqK3Y7hSfP0pK7+SXEy9+UCr+UEw0kYpedbvhwZ0OY+RmGQtO6lN54kysd16Lv6PhZ9czFtfZrM488TGTnT+dWpH131xMU8bvVE+nurKy6Gk9ZAfPjkD2+T1jCMpPj3r+LXk8E7dVQib0VPfLr4tzgbDtWhb7aKOvftdjyMvGnyd/KYt9uud/eymTyHdpb6Ep57ZA3VyB+kjeV4gYyuuvaBJbImPLJcL576zvzQC/zU1rr2w+HXHy0aMPW6uAaRzKfp+aoVt2+cO2ext/BMtd05kRql4ki43u3Ul+1A3l/cjRvW9y9ANsVOp5P9KA075dd1Eid1fPmH5TvX0rcOLVeOnJmfiGkUjjxfWs2F5erBOrTbnaZ15/gzmf8+VLNTek464QwGJyfWY1PLT5fJT4/Jzw6Tnz6Tn10mP3tMfvaZ/Bww+bE7XI64RrTNNaRtrjFtcw1qm2tU21zD2uYa1zbXwLa5RnaXa2R32eZqrpHd5RrZXaORLeLZ7e3K66q1VrRIugZuyDYyc0O2kJkbsn3M3JBxb+aGjHozN2TMm7khI97MDRnvZm7ohczQD9M4ppcxQz9MI5lexAz9MI1legkz9MM0mukFzNAP03imly9DP1zzMtN4ptcuQz/64/neCxLzZeta7dL3QzaPoR+yeQz9kM1j6IcMd0M/ZLgb+iHD3dAPGe6GfshwN/RDr1+mjrhGNL2CmTriGtP0GmbqiGtU06uYqSOucU2vY6aOuEY2vZKZOmKbq7lGNr2YmTrSH9lP9y9K3y+s93nj4gXEDBL0X7dsEvTfvWwS9F/EbBL0p0BsEvTnQ2wS9CdHbBL0Z0psEvSnTWwSBR+x8mnUEN8FH8zyadQQ4QUf5/Jp1BDjBR8C82nUEOUFHx3zadQQ5wUfOPNp1LGO1xDnBZ9g82lUi/PS1zjqpVWL9zwySNC9wSZBdwabBN0XbBL0lMsmQc+4bBL0hMsmQc+3bBL0dMsmUZBW8WnUEN8FaRWfRg0RXpBW8WnUEOMFaRWfRg1RXpBW8WnUEOcFaRWfRh3reA1xXpBW8WlUi/PSt2XppVWL12kxSNC9wSZBdwabBN0XbBL0lMsmQc+4bBL0hMsmQc+3bBL0dMsmUZBW8WnUEN8FaRWfRg0RXpBW8WnUEOMFaRWfRg1RXpBW8WnUEOcFaRWfRh3reA1xXpBW8WlUi/PSl5LopVWLt5YwSNC9wSZBdwabBN0XbBL0lMsmQc+4bBL0hMsmQc+3bBL0dMsmUZBW8WnUEN8FaRWfRg0RXpBW8WnUEOMFaRWfRg1RXpBW8WnUEOcFaRWfRh3reA1xXpBW8WlUi/PS2u96adWiODyDBN0bbBJ0Z7BJ0H3BJkFPuWwS9IzLJkFPuGwS9HzLJkFPt2wSBWkVn0YN8V2QVvFp1BDhBWkVn0YNMV6QVvFp1BDlBWkVn0YNcV6QVvFp1LGO1xDnBWkVn0a1OC8tsauXVi1q8DJI0L3BJkF3BpsE3RdsEvSUyyZBz7hsEvSEyyZBz7dsEvR0yyZRkFbxadQQ3wVpFZ9GDRFekFbxadQQ4wVpFZ9GDVFekFbxadQQ5wVpFZ9GHet4DXFekFbxaVSL89JKhnpp1aLUIYNEUZ0bJomiCjhMEkW1cZgkiupBMUkUVYpikiiqIcUkUVRdikmiqO4Uk0RhsTUujRriu7BEG5dGDRFeWNiNS6OGGC8sB8elUUOUFxaR49KoIc4LS89xadSxjtcQ54W17Lg0yuP8i06F17yIszgSgbxfVpDNCsc24rtxM6sAW1oqdlkJOpbJu3AWuHGj32kK2+43RU/91u3rlZt9SDGeCly77sBJ5DiM5scPXryopPx0/RrlplMHZ5Ero/OZKmysfaLimK9yfJROPIvkAkPVZs7bfcOlvmGGGWaYYYYZZphhhhlmmGGGGWaYYYYZZphhhhlmmGGGGWaYYYYZZphhhhlmmGGGGWaYYYYZZphhhhlmmGGGGWaYYYYZZphh/kuZ5+3wTkaR58qPjnqw1m531nxeVT0aG68+GnshI0/G+eO1VnP5APHUD5O27wWy9BHZ+KXndMufrI3b2avnp6HvJF4YpFBWnMhp61qOwkhaek8+/yLHMnBXL2ixr7HbaYqeenK5ox5kVj8sX44SBVbieum2fTWWyUmQqPZJJUazYJiRNrbEHyUuloTy6ezL0me51eaNRCOZeHE7znpFT0htz05qp+134gwnjf8Am3pb4qtHx1P23O/VNIw95fB9ulvnapabcvMCVRTemyEtsbzAlSoeWnbT8OzldlP1xJEnfTXeGnmbLuJkHIWzqXTFDz+I7/L9D+2riRPnz7+rANt6bp2/aE0bpO2Mx6dKo+3LYJxMxFvRFf8Q1rHvW+Jw9YjY94ay0bK3Ljtftkrj7ZsrCSPRuEkvpfOjuEll8qGa66p9f0tnHPMOUpsaxrm/y5sv7a9yLo6OjhaNV81j5jXv9hvTS11u15F0vlY5+dHwHNPjVXvlV3ekhrUaDPlIyQo5tK+cOPbGgXQHqkREfJm15JdqTbns6OksnjSq9kXapYeL/qweSb5/qHOVbXVkVZU4icKvUk9ncWxVpXDqDL1krieVH1z5qjKJpVRVL8uJZHVaqRIexpOP2pbhvDrxiJawTb2ZhJs+62MzW1W1jn8syynUtr0tPv32Wfzr7LdzcXF2/vnnX38Sv5z99PNAfDg5P9FzcJrO2vLBUSmaSEIRh1EigtltOg6GIitpEgsnHqbJixeMNTwu2175ebYyO01xrT+5RDKZRYGYOlEsT/3QSRqOmvK30q58tu8626fVmOUp2jPZ/BLKHD9uttLLU/6ZhXsW7I03rhw5Mz8R0yhM5zD5pinefL+/PxicnLzZcOEZ4AAHOMABDnCAAxzgAAc4wPlr4oh4dpv+CSxcqXYK15kroki6oAENaEADGtCABjSgAQ1oQAOaYpr77KtZf6K59mcSOMABDnCAAxzgAAc4wAEOcIBTBefpvYG2em/gxYx6b2DPzu6wHR/v7BwcgBSkIAUpSEEKUpCCFKQgBSlIQQrS10HazUidhCLtZKS9Xre7vwtSkIIUpCAFKUhBClKQghSkIAUpSF8HaU+RnkYeQdo9yEhte2+v1wMpSEEKUpCCFKQgBSlIQQpSkIIUpK+DdEeRfp7MKNL9jPQg3frvQApSkIIUpCAFKUhBClKQghSkIAXp6yDtK9LfpUuR7mWk798PBnt7IAUpSEEKUpCCFKQgBSlIQQpSkIL0dZDuZp9MzCRFupuRDga7uyAFKUhBClKQghSkIAUpSEEKUpCC9LWQ7inSjyFVWbDbz0j397vdfh+kIAUpSEEKUpCCFKQgBSlIQQpSkNZGukRxI+e+UersoZ14iS8vJs5UthP5kDTefAhnUVyOMf/2zPferQxiLwx8GWceSlxsb4tj1xWOyDyJey+ZiDi8lcLtlZwZ343bznQqA7dhKW1rq+SE5dZ2kiRqWA9WU+x2DE+apyd19U+Kk7kvF3gtJxhOwig93/LlyIA29zEKg6R1L73xJFE+rkPf1fex6JuLaevccb10ZI7nV6d+dLUjLuZxqyfS39OfF8NJ64P48Mkf3iatYRhJ8e9fxa8ng3fqqETeip74dPFvcTYcqkPfbBV17dvteBh50+Tv5DFvt13v7mUzeQ7tLPUlPPfIGqpxP0ibyvECGV11ux1LZA14ZLlePPWd+aEX+Kmtde2Hw68/WjRg6nVxDSKZT9PzVRtu3zh3zmJv4Zlqu3MiNUbFkXC926kv24G8v7gbN6zvX4Bsip1OJ/tRGnTKr+skTur48g/Ld66lbx1arhw5Mz8R0ygceb60mgvL1YN1aLc7TevO8WfSOuz3272DZ1uv37SGaqpKXaSzz2BwcmI9NrXcdjfjtrcZtzubcdvfjNvdzbjd24zb/c24PdiMW7uzIb8bijN7Q4FmbyjS7A2Fmr2hWLM3FGz2hqLN3lC42RuKt+6G4q27qXVtQ/HW3VC8ddeJNxHPbm9XXgpeJXOIpGvgVbd9zbzqtq6ZV922NfOqO5OZedWdx8y86s5iZl515zAzr7ozmJlX7YTB0O1moks7XTB0u5n40k4WDN1uJsK0UwVDt5uJMe1EwdDtZqJMO00wdLuhNWwzUaadIxi6rRxl916QrJ0eXKsj9N3qNq2hW92mNXSr27SGbnUnMEO3uhOYoVvdCczQre4EZuhWdwIzdKudJ5j63VCcaWcKpn43FGnauYKp3w3Fmna2YOp3Q9GmnS+Y+t1QvGlnDKZ+N7WubSjetJMGU79m8fZF58ZFfmdSHIlA3i9vjGT3Qxrx3biZ3dgovQOyvL0Zy+RdOAvcuNHvNIVt95uip37r9vXuojykGE93bV134CRyHEbz4wcvXtwefGoLjXuoqYOzyJXR+UzdrdM+UXHMVzk+SieeRXKBoW445n2w7l3h7IbUqtSFjDwZ57ipUt4hUz9M2uouWalk/NJ1l5PG7WzgTUPfSbwwSKGsOJHT1rUchZG09EbSL3IsA3f1ghb7GrvpKOipkaBuqtnqR37TtfR+9NJt+2osk5MgUe2TSoxmwTAjbWyJPzTuuipC+XT2ZWlsqM0biUYy8eJ0XKvz9ITU9uykdtp+J85w0vgPsKm3JX5+jzH3ezUNY085fJ/u1rma5abcvEAVhfdmSEssL3ClCtyW3TQ8e7ndVD1x5ElfjbdG3qaLOBlH4WwqXfHDD+K7fP9D+2rixPl8ogJs67l1/qI1bZC2Mx6fKo22L4NxMhFvRVf8Q1jHvm+Jw9UjYt8bykbL3rrsfNkqjbdvriSMROMmvZTOj+ImlcmHaq6r9v3tSNjmHaQ2NYxzf5c3X9pfZTq9HR0tGq+ax8xr3u03ppe63K4j6XytcvKj4Tmmx6v2yq/uSA1rNRjykZItjO2rxTeKpJt9pyi+zFryS7WmXHb0dBZPGlX7Iu3Sw0V/Vo8k3z/Uucq2OrKqSpxE4Vepp7M4tqpSOHWGXjLXk8oPrnxVmcRSqqqX5USyOq1UCQ/jyUdty3BenXhES9im3kzCTZ/1sZmtqlrHP5blFGrb3haffvss/nX227m4ODv//POvP4lfzn76eSA+nJyf6Dk4TWdt+eCoFE0koYjDNJEOZrfpOBiKLEWMhRMP0+TFC8YaHpdtr/w8W5mdprjWn1wimcyiQEydKJanfugkDUdN+VtpVz7bd53t02rM8hTtmWx+CWWOH/8L3/z80x3b/Oud6gbsf+WLqMABDnCAAxzgAAc4wAEOcIDz6nG+/eaLIoqkCxrQgAY0oAENaEADGtCABjSgKab55juBikZ9xQ84wAEOcIADHOAABzjAAQ5wgPNfrLf4Wd5OZeQks0iKxukWKi7+b1VcnE2n/lwce5FQHfVKaibar6Fmoo2aicalDVAz0dwtaiaiZqJ5aQPUTKzmFzUTUTMRNRNRMxE1E1Ez8SW3qJmImomomWicJqBmorlb1ExEzUTUTDRNE1AzsZpf1ExEzUTUTETNxBduXKBm4gscqJmImokCNRP1sFAzETUTq2yomag21ExEzcRsQ83E4iNRM7HcgdpQM/F1lBYBDnCAAxzgAAc4wAEOcIADnFeP8z9WcQQ0oAENaEADGtCABjSgAQ1oXg/N/zeVToADHOAABzjAAQ5wgAMc4ACnuh5qJr68oWbiomaisF9J1cTua6ia2K2tamL2e9XyTEx+ekx+dpj89Jn87DL52WPys8/k54DJz0pVgbUccY1om2tI21xj2uYa1DbXqLa5hrXNNa5troFtc43sLtfI7rLN1Vwju8s1srtGI1u/mt+Kq+rl+9ZwQ7ZQ9QJ9a7gh4756Cb413JAxX73I3hpuyHhfo4zeOn6YxjG9jK1RGW8dP0xDmV7D1ih2t44fptFML2Br1K9bZx5kGs/06rVGSbp1/DCNZ3rpql5lbsXNGmXl1vFDNs8ahePW8UOG+xql4dbxQ4b7GsXf1vFDhvs65d3WcsQ1oukVbJ2KbWs54hrU9CK2ThG2tRxxjWt6HVunrtpaMyPXyKaXsnVKpa3liGtk06vZN44+RV4Yeclc2KIlGhezYEvVodpt/V8naHXsVvb7ezls9Wxqmeus/KF3fLyzc3DAINHdvERv8xI7m5fob15id/MSe5uX2N+8xMHmJVZW9k1p1BDfdg0BbtcQ4XYNIW7XEON2DUFu1xDldg1hbtcQ590a4rxbxzpeQ5x3a4jzbrU472YaTkJpdPTSql6v293fZZCge4NNgu4MNgm6L9gk6CmXTYKecdkk6AmXTYKeb9kk6OmWTaIgreLTqCG+C9IqPo0aIrwgreLTqCHGC9IqPo0aorwgreLTqCHOC9IqPo061vEa4rwgreLTqBbnPaVxGnmERvdAL62y7b29Xo9Bgu4NNgm6M9gk6L5gk6CnXDYJesZlk6AnXDYJer5lk6C/G8UmUfCFQD4N+htVfBr0l634NOjvYfFp0F/R4tOgv5fIp0F/ZZFPg/42I58G/UVHPo0a4rwgreLTqGMdr2EhL0ir+DSqLeU7SuPzZEZp7OulVeqdS/13DBJ0b7BJ0J3BJkH3BZsEnVaxSdBpFZsEnVaxSdBpFZsEPd2ySRSkVXwadFrFp0GnVXwadFrFp0GnVXwadFrFp0GnVXwadFrFp0GnVXwaNcR5QVrFp1HHOl7DQl6QVvFpVFvK+0rjd+lSGnt6adX794PB3h6DBN0bbBJ0Z7BJ0H3BJkGnVWwSdFrFJkGnVWwSdFrFJkFPt2wSBWkVnwadVvFp0GkVnwadVvFp0GkVnwadVvFp0GkVnwadVvFp0GkVn0YNcV6QVvFp1LGO17CQF6RVfBrVlvLdLHWbSUpjVy+tGgx2d1kk6N5gk6A7g02C7gs2CTqtYpOg0yo2CTqtYpOg0yo2CXq6ZZMoSKv4NOi0ik+DTqv4NOi0ik+DTqv4NOi0ik+DTqv4NOi0ik+DTqv4NGqI84K0ik+jjnW8hoW8IK3i06i2lO8pjY8h9bX4bl8vrdrf73b7fQYJujfYJOjOYJOg+4JNgk6r2CTotIpNgk6r2CTotIpNoqjuFJNEYbE1Lo2ialVcGkWFrLg0impccWkUlb/i0iiq+calUVQOjkujqFIcl0ZRETkujRrivCCt4tOoYx2vYSEvSKv4NMqX8i86FV7zQsziSATyfllBNisc24jvxs2sAmxpqdhlNedYJu/CWeDGjX6nKWy73xQ99Vu3r1du9iHFeKpE7boDJ5HjMJofP3jxohby0/VrlIxOHZxFrozOZ6o0sfaJimO+yvFROvEskgsMVV05b/cN1+SGGWaYYYYZZphhhhlmmGGGGWaYYYYZZphhhhlmmGGGGWaYYYYZZphhhhlmmGGGGWaYYYYZZphhhhlmmGGGGWaYYYYZZphhhvkvZZ63wzsZRZ4rPzrqwVq73VnzeVX1aGy8+mjshYw8GeeP11rN5QPEUz9M2r4XyNJHZOOXntMtf7I2bmevnp+GvpN4YZBCWXEip61rOQojaek9+fyLHMvAXb2gxb7GbqcpeurJ5Y56kFn9sHw5ShRYieul2/bVWCYnQaLaJ5UYzYJhRtrYEn+UuFgSyqezL0uf5VabNxKNZOLF7TjrFT0htT07qZ2234kznDT+A2zqbYmvHh1P2XO/V9Mw9pTD9+lunatZbsrNC1RReG+GtMTyAleqeGjZTcOzl9tN1RNHnvTVeGvkbbqIk3EUzqbSFT/8IL7L9z+0ryZOnD//rgJs67l1/qI1bZC2Mx6fKo22L4NxMhFvRVf8Q1jHvm+Jw9UjYt8bykbL3rrsfNkqjbdvriSMROMmvZTOj+ImlcmHaq6r9v0tnXHMO0htahjn/i5vvrS/yrk4OjpaNF41j5nXvNtvTC91uV1H0vla5eRHw3NMj1ftlV/dkRrWajDkIyUr5NC+cuLYGwfSHagSEfFl1pJfqjXlsqOns3jSqNoXaZceLvqzeiT5/qHOVbbVkVVV4iQKv0o9ncWxVZXCqTP0krmeVH5w5avKJJZSVb0sJ5LVaaVKeBhPPmpbhvPqxCNawjb1ZhJu+qyPzWxV1Tr+sSynUNv2tvj022fxr7PfzsXF2fnnn3/9Sfxy9tPPA/Hh5PxEz8FpOmvLB0elaCIJRRxGiQhmt+k4GIqspEksnHiYJi9eMNbwuGx75efZyuw0xbX+5BLJZBYFYupEsTz1QydpOGrK30q78tm+62yfVmOWp2jPZPNLKHP8uNlKL0/5ZxbuWbA33rhy5Mz8REyjMJ3D5JumePP9/v5gcHLyZsOFZ4ADHOAABzjAAQ5wgAMc4ADnr4kj4tlt+iewcKXaKVxnrogi6YIGNKABDWhAAxrQgAY0oAENaIpp7rOvZv2J5tqfSeAABzjAAQ5wgAMc4AAHOMABThWcp/cG2uq9gRcz6r2BPTu7w3Z8vLNzcABSkIIUpCAFKUhBClKQghSkIAUpSF8HaTcjdRKKtJOR9nrd7v4uSEEKUpCCFKQgBSlIQQpSkIIUpCB9HaQ9RXoaeQRp9yAjte29vV4PpCAFKUhBClKQghSkIAUpSEEKUpC+DtIdRfp5MqNI9zPSg3TrvwMpSEEKUpCCFKQgBSlIQQpSkIIUpK+DtK9If5cuRbqXkb5/Pxjs7YEUpCAFKUhBClKQghSkIAUpSEEK0tdBupt9MjGTFOluRjoY7O6CFKQgBSlIQQpSkIIUpCAFKUhBCtLXQrqnSD+GVGXBbj8j3d/vdvt9kIIUpCAFKUhBClKQghSkIAUpSEFaG+kSxY2c+0aps4d24iW+vJg4U9lO5EPSePMhnEVxOcb82zPfe7cyiL0w8GWceShxsb0tjl1XOCLzJO69ZCLi8FYKt1dyZnw3bjvTqQzchqW0ra2SE5Zb20mSqGE9WE2x2zE8aZ6e1NU/KU7mvlzgtZxgOAmj9HzLlyMD2tzHKAyS1r30xpNE+bgOfVffx6Jv/nn8z0UDn8uJdBJhi7PhUFwMJ2+2irrp7XY8jLxp8nfymLfbrnf3spk8h3aW+hKee2QN1RgepJfteIGMrrrdniWyxjiyXC+e+s780Av81Na69sPh1x8tGjD1urgGkcyn6fmqPbZvnDtnsbfwTLXdOZEab+JIuN7t1JftQN5f3I0b1vcvQDbFTqeT/SgNIOXXdRIndXz5h+U719K3Di1XjpyZn4hpFI48X1rNheXqwTq0252mdef4M5n/PlTzTHpOOnUMBicn1mNTy0+XyU+Pyc8Ok58+k59dJj97TH72mfwcMPmxO1yOuEa0zTWkba4xbXMNaptrVNtcw9rmGtc218C2uUZ2l2tkd9nmaq6R3eUa2V2jkS3i2e3tyountVa0SLoGbsg2MnNDtpCZG7J9zNyQcW/mhox6MzdkzJu5ISPezA0Z72Zu6IXM0A/TOKaXMUM/TCOZXsQM/TCNZXoJM/TDNJrpBczQD9N4ppcvQz9c8zLTeKbXLkM/+uP53gsS82XrWu3S90M2j6EfsnkM/ZDNY+iHDHdDP2S4G/ohw93QDxnuhn7IcDf0Q69fpo64RjS9gpk64hrT9Bpm6ohrVNOrmKkjrnFNr2OmjrhGNr2SmTpim6u5Rja9mJk60h/ZT3ciSt8UTC1znZU/9BavEmaQ6G5eord5iZ3NS/Q3L7G7eYm9zUvsb17iYPMSKyv7pjRqiG+7hgC3a4hwu4YQt2uIcbuGILdriHK7hjC3a4jzbg1x3q1jHa8hzrs1xHm3WpyXvpBRL61avLGRQYLuDTYJujPYJOi+YJOgp1w2CXrGZZOgJ1w2CXq+ZZOgp1s2iYK0ik+jhvguSKv4NGqI8IK0ik+jhhgvSKv4NGqI8oK0ik+jhjgvSKv4NOpYx2uI84K0ik+jWpyXvvdKL61avBiLQYLuDTYJujPYJOi+YJOgp1w2CXrGZZOgJ1w2CXq+ZZOgvxvFJlHwhUA+DfobVXwa9Jet+DTo72HxadBf0eLToL+XyKdBf2WRT4P+NiOfBv1FRz6NGuK84OuRfBo1xHnBlyr5NGpYyQvSqiKN0teL6KVVi/ePMEjQaRWbBN0ZbBJ0X7BJ0GkVmwSdVrFJ0GkVmwSdVrFJ0NMtm0RBWsWnQU+3fBr0dMunQadVfBp0WsWnQadVfBp0WsWnQadVfBp0WsWnUUOcF6RVfBo1xHlBWsWnUcNKXpBWFWmUVnHXS6sWZd4ZJOi0ik2C7gw2Cbov2CTotIpNgk6r2CTotIpNgk6r2CTo6ZZNoiCt4tOgp1s+DXq65dOg0yo+DTqt4tOg0yo+DTqt4tOg0yo+DTqt4tOoIc4L0io+jRrivCCt4tOoYSUvSKuKNEqL5eqlVYtqugwSdFrFJkF3BpsE3RdsEnRaxSZBp1VsEnRaxSZBp1VsEvR0yyZRkFbxadDTLZ8GPd3yadBpFZ8GnVbxadBpFZ8GnVbxadBpFZ8GnVbxadQQ5wVpFZ9GDXFekFbxadSwkhekVUUapTUJ9dKqRdFCBgk6rWKToDuDTYLuCzYJOq1ik6DTKjYJOq1ik6DTKjaJorpTTBKFxda4NOjplk+jqJAVl0ZRjSsujaLyV1waRTXfuDSKysFxaRRViuPSKCoix6VRQ5wXlp7j0qghzgsL1nFp1LCSF6RVS40vOhVe83LM4kgE8n5ZQTYrHNuI78bNrAJsaanYZU3nWCbvwlngxo1+pylsu98UPfVbt69XbvYhxXgqVe26AyeR4zCaHz948aIm8tP1axSOTh2cRa6MzmeqRLH2iYpjvsrxUTrxLJILDFVlOW/3DRfthhlmmGGGGWaYYYYZZphhhhlmmGGGGWaYYYYZZphhhhlmmGGGGWaYYYYZZphhhhlmmGGGGWaYYYYZZphhhhlmmGGGGWaYYYb5L2Wet8M7GUWeKz866sFau91Z83lV9WhsvPpo7IWMPBnnj9dazeUDxFM/TNq+F8jSR2Tjl57TLX+yNm5nr56fhr6TeGGQQllxIqetazkKI2npPfn8ixzLwF29oMW+xm6nKXrqyeWOepBZ/bB8OUoUWInrpdv21VgmJ0Gi2ieVGM2CYUba2BJ/lLhYEsqnsy9Ln+VWmzcSjWTixe046xU9IbU9O6mdtt+JM5w0/gNs6m2Jrx4dT9lzv1fTMPaUw/fpbp2rWW7KzQtUUXhvhrTE8gJXqnho2U3Ds5fbTdUTR5701Xhr5G26iJNxFM6m0hU//CC+y/c/tK8mTpw//64CbOu5df6iNW2QtjMenyqNti+DcTIRb0VX/ENYx75vicPVI2LfG8pGy9667HzZKo23b64kjETjJr2Uzo/iJpXJh2quq/b9LZ1xzDtIbWoY5/4ub760v8q5ODo6WjReNY+Z17zbb0wvdbldR9L5WuXkR8NzTI9X7ZVf3ZEa1mow5CMlK+TQvnLi2BsH0h2oEhHxZdaSX6o15bKjp7N40qjaF2mXHi76s3ok+f6hzlW21ZFVVeIkCr9KPZ3FsVWVwqkz9JK5nlR+cOWryiSWUlW9LCeS1WmlSngYTz5qW4bz6sQjWsI29WYSbvqsj81sVdU6/rEsp1Db9rb49Ntn8a+z387Fxdn5559//Un8cvbTzwPx4eT8RM/BaTprywdHpWgiCUUcRokIZrfpOBiKrKRJLJx4mCYvXjDW8Lhse+Xn2crsNMW1/uQSyWQWBWLqRLE89UMnaThqyt9Ku/LZvutsn1Zjlqdoz2TzSyhz/LjZSi9P+WcW7lmwN964cuTM/ERMozCdw+Sbpnjz/f7+YHBy8mbDhWeAAxzgAAc4wAEOcIADHOAA56+JI+LZbfonsHCl2ilcZ66IIumCBjSgAQ1oQAMa0IAGNKABDWiKae6zr2b9ieban0ngAAc4wAEOcIADHOAABzjAAU4VnKf3BtrqvYEXM+q9gT07u8N2fLyzc3AAUpCCFKQgBSlIQQpSkIIUpCAFKUhfB2k3I3USirSTkfZ63e7+LkhBClKQghSkIAUpSEEKUpCCFKQgfR2kPUV6GnkEafcgI7Xtvb1eD6QgBSlIQQpSkIIUpCAFKUhBClKQvg7SHUX6eTKjSPcz0oN0678DKUhBClKQghSkIAUpSEEKUpCCFKSvg7SvSH+XLkW6l5G+fz8Y7O2BFKQgBSlIQQpSkIIUpCAFKUhBCtLXQbqbfTIxkxTpbkY6GOzughSkIAUpSEEKUpCCFKQgBSlIQQrS10K6p0g/hlRlwW4/I93f73b7fZCCFKQgBSlIQQpSkIIUpCAFKUhBWhvpEsWNnPtGqbOHduIlvryYOFPZTuRD0njzIZxFcTnG/Nsz33u3Moi9MPBlnHkocbG9LY5dVzgi8yTuvWQi4vBWCrdXcmZ8N24706kM3IaltK2tkhOWW9tJkqhhPVhNsdsxPGmentTVPylO5r5c4LWcYDgJo/R8y5cjA9rcxygMkta99MaTRPm4Dn1X38eib/55/M9FA5/LiXQScTYciovh5M1WUSe93Y6HkTdN/k4e83bb9e5eNpPn0M5SX8Jzj6yhGsGD9KIdL5DRVbe7Y4msKY4s14unvjM/9AI/tbWu/XD49UeLBky9Lq5BJPNper5qje0b585Z7C08U213TqRGmzgSrnc79WU7kPcXd+OG9f0LkE2x0+lkP0rDR/l1ncRJHV/+YfnOtfStQ8uVI2fmJ2IahSPPl1ZzYbl6sA7tdqdp3Tn+TFqHuwftg2fb/kHTGqo5J/WQTiODwcmJ9djU8trdiNfeRrzubMRrfyNedzfidW8jXvc34vVgI17tzmbcbia67M2El72Z+LI3E2D2ZiLM3kyI2ZuJMXszQWZvJsq6m4my7obWsM1EWXczUdZdI8pEPLu9XXmNd4UMIZKugVPNtjVzqtmyZk4129XMqebcZeZUc+Yyc6o5b5k51Zy1zJxqzllmTnUTA0OvG4kp3bTA0OtGoko3KTD0upG40k0JDL1uJLJ0EwJDrxuJLd10wNDrZtarjcSWbi5g6LVqbN17QbJuGnCtDtD3qtmshl41m9XQq2azGnrVnLIMvWpOWYZeNacsQ6+aU5ahV80py9Crbj5g6nYz0aWbEZi63Ux86eYEpm43E2G6WYGp283EmG5eYOp2M1GmmxmYut3QGraZKNNNDkzdGkXZF50bDvm9QXEkAnm/vKGR3cdoxHfjZnZDovTOxfIGYyyTd+EscONGv9MUtt1vip76rdvXu/vxkGI83Td13YGTyHEYzY8fvHhxg+6pKTTuYqYOziJXRuczdb9M+0TFMV/l+CideBbJBYa65Zd3wbr3ZbMbSatSFzLyZJzjpkp5h0z9MGmru1ulkvFL111OGrezcTcNfSfxwiCFsuJETlvXchRG0tIbSb/IsQzc1Qta7GvspqOgp0aCuhlmqx/5bc/SO8JLt+2rsUxOgkS1TyoxmgXDjLSxJf7QuO+pCOXT2ZelsaE2byQaycSL03GtztMTUtuzk9pp+504w0njP8Cm3pb4+b3B3O/VNIw95fB9ulvnapabcvMCVRTemyEtsbzAlSpwW3bT8OzldlP1xJEnfTXeGnmbLuJkHIWzqXTFDz+I7/L9D+2riRPn84kKsK3n1vmL1rRB2s54fKo02r4MxslEvBVd8Q9hHfu+JQ5Xj4h9bygbLXvrsvNlqzTevrmSMBKNm/RSOj+Km1QmH6q5rtr3tyNhm3eQ2tQwzv1d3nxpf5Xp9HZ0tGi8ah4zr3m335he6nK7jqTztcrJj4bnmB6v2iu/uiM1rNVgyEdKtjC2rxbf6ZFu9q2e+DJryS/VmnLZ0dNZPGlU7Yu0Sw8X/Vk9knz/UOcq2+rIqipxEoVfpZ7O4tiqSuHUGXrJXE8qP7jyVWUSS6mqXpYTyeq0UiU8jCcftS3DeXXiES1hm3ozCTd91sdmtqpqHf9YllOobXtbfPrts/jX2W/n4uLs/PPPv/4kfjn76eeB+HByfqLn4DSdteWDo1I0kYQiDtNEOpjdpuNgKLIUMRZOPEyTFy8Ya3hctr3y82xldpriWn9yiWQyiwIxdaJYnvqhkzQcNeVvpV35bN91tk+rMctTtGey+SWUOX78L3z38k83YPMvWKobqv+Vr4ICBzjAAQ5wgAMc4AAHOMABzqvH+fYLLoooki5oQAMa0IAGNKABDWhAAxrQgKaY5puvBCoa9RU/4AAHOMABDnCAAxzgAAc4wAHOf7Hi4Wd5O5WRk8wiKRqnW6h5+D9V8/B3R424DzL75/j22pNBIlSXqcqH0p2l7d8Se53TV1IEsf8aiiD2ayuCmD16WrUIE5OfHpOfHSY/fSY/u0x+9pj87DP5OWDys1JdYC1HXCPa5hrSNteYtrkGtc01qm2uYW1zjWuba2DbXCO7yzWyu2xzNdfI7nKN7K7RyNYv2rfiqnqZvjXckC1UvRTfGm7IuK9ebm8NN2TMVy+pt4YbMt7XKJu3jh+mcUwvY2sUw1vHD9NQptewNUrcreOHaTTTC9gahevWmQeZxjO9eq1Rjm4dP0zjmV66qheZW3GzRlm5dfyQzbNG6bh1/JDhvkZ5uHX8kOG+Rgm4dfyQ4b5Ombe1HHGNaHoFW6d421qOuAY1vYitU5JtLUdc45pex9YptLbWzMg1sumlbJ3yaWs54hrZ9GqGomivoigazDDDDDPMMMMMM8wwwwwzzDDDDDPM/0vmeTu8k1HkufKjoz6ostsdFMV/diUoiv+0oSi+0Yai+CiKb7ChKP6fNxTF//OGoviGG4rioyj+ixuK4gMHOMABDnCAAxzgAAc4wAEOcF5DSUnQgAY0oAENaEADGtCABjSgeT00/9+UsgQOcIADHOAABzjAAQ5wgAOc6nr/haL4771bGcReGPgyjlES/3+rJH4YfRUno5E39GQwnD8Vwq+3BH5+9J8sz/+//H3x75P3/Jenf65Dd67+nSS3/t//z/8DTqwdRg=="
               },
               {
                  "name" : "annual_peak_electric_demand",
                  "units" : "kW",
                  "value" : 631.75420999999994
               },
               {
                  "name" : "first_year_capital_cost",
                  "units" : "$",
                  "value" : 0
               },
               {
                  "name" : "annual_utility_cost",
                  "units" : "$",
                  "value" : 0
               },
               {
                  "name" : "total_lifecycle_cost",
                  "units" : "$",
                  "value" : 0
               }
            ],
            "step_warnings" : []
         }
      }
   ],
   "updated_at" : "20170710T194716Z",
   "weather_file" : "USA_CO_Denver.Intl.AP.725650_TMY3.epw"
}
