{
   "completed_at" : "20170710T184919Z",
   "completed_status" : "Success",
   "created_at" : "2017-07-10 18:41:29 +0000",
   "current_step" : 5,
   "description" : "",
   "eplusout_err" : "Program Version,EnergyPlus, Version 8.7.0-78a111df4a, YMD=2017.07.10 18:45,IDD_Version 8.7.0\n   ************* IDF Context for following error/warning message:\n   ************* Note -- lines truncated at 300 characters, if necessary...\n   *************      5 Building,\n   ************* indicated Name=NECB 2011-PrimarySchool-NECB HDD Method-CAN_ON_Mount.Forest.716310_CWEC.epw created: 2017-07-10 18:41:35 +0000\n   ************* Only last 1 lines before error line shown.....\n   *************      6   NECB 2011-PrimarySchool-NECB HDD Method-CAN_ON_Mount.Forest.716310_CWEC.epw created: 2017-07-10 18:41:35 +0000, !- Name\n   ** Warning ** IP: IDF line~6 Alpha Argument length exceeds maximum, will be truncated=  NECB 2011-PrimarySchool-NECB HDD Method-CAN_ON_Mount.Forest.716310_CWEC.epw created: 2017-07-10 18:41:35 +000\n   **   ~~~   ** Will be processed as Alpha=NECB 2011-PRIMARYSCHOOL-NECB HDD METHOD-CAN_ON_MOUNT.FOREST.716310_CWEC.EPW CREATED: 2017-07-10 18:41:35 +0000\n   ************* IDF Context for following error/warning message:\n   ************* Note -- lines truncated at 300 characters, if necessary...\n   *************   1058 Schedule:Week:Daily,\n   ************* indicated Name=Schedule:Week:Daily {63b48bef-edd0-49c7-9403-d0d058964b1c}\n   ************* Only last 10 lines before error line shown.....\n   *************   1059   Schedule:Week:Daily {63b48bef-edd0-49c7-9403-d0d058964b1c}, !- Name\n   *************   1060   Sp-Cafeteria_ZN_1_FLR_1 Sys-3 Flr-1 Sch-C HPlcmt-north ZN NECB System 3 PSZ Occ Sch Sunday, !- Sunday Schedule:Day Name\n   *************   1061   Sp-Cafeteria_ZN_1_FLR_1 Sys-3 Flr-1 Sch-C HPlcmt-north ZN NECB System 3 PSZ Occ Sch Monday, !- Monday Schedule:Day Name\n   *************   1062   Sp-Cafeteria_ZN_1_FLR_1 Sys-3 Flr-1 Sch-C HPlcmt-north ZN NECB System 3 PSZ Occ Sch Tuesday, !- Tuesday Schedule:Day Name\n   *************   1063   Sp-Cafeteria_ZN_1_FLR_1 Sys-3 Flr-1 Sch-C HPlcmt-north ZN NECB System 3 PSZ Occ Sch Wednesday, !- Wednesday Schedule:Day Name\n   *************   1064   Sp-Cafeteria_ZN_1_FLR_1 Sys-3 Flr-1 Sch-C HPlcmt-north ZN NECB System 3 PSZ Occ Sch Thursday, !- Thursday Schedule:Day Name\n   *************   1065   Sp-Cafeteria_ZN_1_FLR_1 Sys-3 Flr-1 Sch-C HPlcmt-north ZN NECB System 3 PSZ Occ Sch Friday, !- Friday Schedule:Day Name\n   *************   1066   Sp-Cafeteria_ZN_1_FLR_1 Sys-3 Flr-1 Sch-C HPlcmt-north ZN NECB System 3 PSZ Occ Sch Saturday, !- Saturday Schedule:Day Name\n   *************   1067   Sp-Cafeteria_ZN_1_FLR_1 Sys-3 Flr-1 Sch-C HPlcmt-north ZN NECB System 3 PSZ Occ Sch Default, !- Holiday Schedule:Day Name\n   *************   1068   Sp-Cafeteria_ZN_1_FLR_1 Sys-3 Flr-1 Sch-C HPlcmt-north ZN NECB System 3 PSZ Occ Sch Summer Design Day, !- SummerDesignDay Schedule:Day Name\n   ** Warning ** IP: IDF line~1068 Alpha Argument length exceeds maximum, will be truncated=  Sp-Cafeteria_ZN_1_FLR_1 Sys-3 Flr-1 Sch-C HPlcmt-north ZN NECB System 3 PSZ Occ Sch Summer Design Da\n   **   ~~~   ** Will be processed as Alpha=SP-CAFETERIA_ZN_1_FLR_1 SYS-3 FLR-1 SCH-C HPLCMT-NORTH ZN NECB SYSTEM 3 PSZ OCC SCH SUMMER DESIGN DAY\n   ************* IDF Context for following error/warning message:\n   ************* Note -- lines truncated at 300 characters, if necessary...\n   *************   1058 Schedule:Week:Daily,\n   ************* indicated Name=Schedule:Week:Daily {63b48bef-edd0-49c7-9403-d0d058964b1c}\n   ************* Only last 10 lines before error line shown.....\n   *************   1060   Sp-Cafeteria_ZN_1_FLR_1 Sys-3 Flr-1 Sch-C HPlcmt-north ZN NECB System 3 PSZ Occ Sch Sunday, !- Sunday Schedule:Day Name\n   *************   1061   Sp-Cafeteria_ZN_1_FLR_1 Sys-3 Flr-1 Sch-C HPlcmt-north ZN NECB System 3 PSZ Occ Sch Monday, !- Monday Schedule:Day Name\n   *************   1062   Sp-Cafeteria_ZN_1_FLR_1 Sys-3 Flr-1 Sch-C HPlcmt-north ZN NECB System 3 PSZ Occ Sch Tuesday, !- Tuesday Schedule:Day Name\n   *************   1063   Sp-Cafeteria_ZN_1_FLR_1 Sys-3 Flr-1 Sch-C HPlcmt-north ZN NECB System 3 PSZ Occ Sch Wednesday, !- Wednesday Schedule:Day Name\n   *************   1064   Sp-Cafeteria_ZN_1_FLR_1 Sys-3 Flr-1 Sch-C HPlcmt-north ZN NECB System 3 PSZ Occ Sch Thursday, !- Thursday Schedule:Day Name\n   *************   1065   Sp-Cafeteria_ZN_1_FLR_1 Sys-3 Flr-1 Sch-C HPlcmt-north ZN NECB System 3 PSZ Occ Sch Friday, !- Friday Schedule:Day Name\n   *************   1066   Sp-Cafeteria_ZN_1_FLR_1 Sys-3 Flr-1 Sch-C HPlcmt-north ZN NECB System 3 PSZ Occ Sch Saturday, !- Saturday Schedule:Day Name\n   *************   1067   Sp-Cafeteria_ZN_1_FLR_1 Sys-3 Flr-1 Sch-C HPlcmt-north ZN NECB System 3 PSZ Occ Sch Default, !- Holiday Schedule:Day Name\n   *************   1068   Sp-Cafeteria_ZN_1_FLR_1 Sys-3 Flr-1 Sch-C HPlcmt-north ZN NECB System 3 PSZ Occ Sch Summer Design Day, !- SummerDesignDay Schedule:Day Name\n   *************   1069   Sp-Cafeteria_ZN_1_FLR_1 Sys-3 Flr-1 Sch-C HPlcmt-north ZN NECB System 3 PSZ Occ Sch Winter Design Day, !- WinterDesignDay Schedule:Day Name\n   ** Warning ** IP: IDF line~1069 Alpha Argument length exceeds maximum, will be truncated=  Sp-Cafeteria_ZN_1_FLR_1 Sys-3 Flr-1 Sch-C HPlcmt-north ZN NECB System 3 PSZ Occ Sch Winter Design Da\n   **   ~~~   ** Will be processed as Alpha=SP-CAFETERIA_ZN_1_FLR_1 SYS-3 FLR-1 SCH-C HPLCMT-NORTH ZN NECB SYSTEM 3 PSZ OCC SCH WINTER DESIGN DAY\n   ************* IDF Context for following error/warning message:\n   ************* Note -- lines truncated at 300 characters, if necessary...\n   *************   1089 Schedule:Day:Interval,\n   ************* indicated Name=Sp-Cafeteria_ZN_1_FLR_1 Sys-3 Flr-1 Sch-C HPlcmt-north ZN NECB System 3 PSZ Occ Sch Summer Design Day\n   ************* Only last 1 lines before error line shown.....\n   *************   1090   Sp-Cafeteria_ZN_1_FLR_1 Sys-3 Flr-1 Sch-C HPlcmt-north ZN NECB System 3 PSZ Occ Sch Summer Design Day, !- Name\n   ** Warning ** IP: IDF line~1090 Alpha Argument length exceeds maximum, will be truncated=  Sp-Cafeteria_ZN_1_FLR_1 Sys-3 Flr-1 Sch-C HPlcmt-north ZN NECB System 3 PSZ Occ Sch Summer Design Da\n   **   ~~~   ** Will be processed as Alpha=SP-CAFETERIA_ZN_1_FLR_1 SYS-3 FLR-1 SCH-C HPLCMT-NORTH ZN NECB SYSTEM 3 PSZ OCC SCH SUMMER DESIGN DAY\n   ************* IDF Context for following error/warning message:\n   ************* Note -- lines truncated at 300 characters, if necessary...\n   *************   1096 Schedule:Day:Interval,\n   ************* indicated Name=Sp-Cafeteria_ZN_1_FLR_1 Sys-3 Flr-1 Sch-C HPlcmt-north ZN NECB System 3 PSZ Occ Sch Winter Design Day\n   ************* Only last 1 lines before error line shown.....\n   *************   1097   Sp-Cafeteria_ZN_1_FLR_1 Sys-3 Flr-1 Sch-C HPlcmt-north ZN NECB System 3 PSZ Occ Sch Winter Design Day, !- Name\n   ** Warning ** IP: IDF line~1097 Alpha Argument length exceeds maximum, will be truncated=  Sp-Cafeteria_ZN_1_FLR_1 Sys-3 Flr-1 Sch-C HPlcmt-north ZN NECB System 3 PSZ Occ Sch Winter Design Da\n   **   ~~~   ** Will be processed as Alpha=SP-CAFETERIA_ZN_1_FLR_1 SYS-3 FLR-1 SCH-C HPLCMT-NORTH ZN NECB SYSTEM 3 PSZ OCC SCH WINTER DESIGN DAY\n   ************* IDF Context for following error/warning message:\n   ************* Note -- lines truncated at 300 characters, if necessary...\n   *************   1450 Schedule:Week:Daily,\n   ************* indicated Name=Schedule:Week:Daily {d498734a-cafb-48a2-9ceb-54ea829de910}\n   ************* Only last 10 lines before error line shown.....\n   *************   1451   Schedule:Week:Daily {d498734a-cafb-48a2-9ceb-54ea829de910}, !- Name\n   *************   1452   Sp-Computer_Class_ZN_1_FLR_1 Sys-3 Flr-1 Sch-D HPlcmt-north ZN NECB System 3 PSZ Occ Sch Sunday, !- Sunday Schedule:Day Name\n   *************   1453   Sp-Computer_Class_ZN_1_FLR_1 Sys-3 Flr-1 Sch-D HPlcmt-north ZN NECB System 3 PSZ Occ Sch Monday, !- Monday Schedule:Day Name\n   *************   1454   Sp-Computer_Class_ZN_1_FLR_1 Sys-3 Flr-1 Sch-D HPlcmt-north ZN NECB System 3 PSZ Occ Sch Tuesday, !- Tuesday Schedule:Day Name\n   *************   1455   Sp-Computer_Class_ZN_1_FLR_1 Sys-3 Flr-1 Sch-D HPlcmt-north ZN NECB System 3 PSZ Occ Sch Wednesday, !- Wednesday Schedule:Day Name\n   *************   1456   Sp-Computer_Class_ZN_1_FLR_1 Sys-3 Flr-1 Sch-D HPlcmt-north ZN NECB System 3 PSZ Occ Sch Thursday, !- Thursday Schedule:Day Name\n   *************   1457   Sp-Computer_Class_ZN_1_FLR_1 Sys-3 Flr-1 Sch-D HPlcmt-north ZN NECB System 3 PSZ Occ Sch Friday, !- Friday Schedule:Day Name\n   *************   1458   Sp-Computer_Class_ZN_1_FLR_1 Sys-3 Flr-1 Sch-D HPlcmt-north ZN NECB System 3 PSZ Occ Sch Saturday, !- Saturday Schedule:Day Name\n   *************   1459   Sp-Computer_Class_ZN_1_FLR_1 Sys-3 Flr-1 Sch-D HPlcmt-north ZN NECB System 3 PSZ Occ Sch Default, !- Holiday Schedule:Day Name\n   *************   1460   Sp-Computer_Class_ZN_1_FLR_1 Sys-3 Flr-1 Sch-D HPlcmt-north ZN NECB System 3 PSZ Occ Sch Summer Design Day, !- SummerDesignDay Schedule:Day Name\n   ** Warning ** IP: IDF line~1460 Alpha Argument length exceeds maximum, will be truncated=  Sp-Computer_Class_ZN_1_FLR_1 Sys-3 Flr-1 Sch-D HPlcmt-north ZN NECB System 3 PSZ Occ Sch Summer Design Da\n   **   ~~~   ** Will be processed as Alpha=SP-COMPUTER_CLASS_ZN_1_FLR_1 SYS-3 FLR-1 SCH-D HPLCMT-NORTH ZN NECB SYSTEM 3 PSZ OCC SCH SUMMER DESIGN DAY\n   ************* IDF Context for following error/warning message:\n   ************* Note -- lines truncated at 300 characters, if necessary...\n   *************   1450 Schedule:Week:Daily,\n   ************* indicated Name=Schedule:Week:Daily {d498734a-cafb-48a2-9ceb-54ea829de910}\n   ************* Only last 10 lines before error line shown.....\n   *************   1452   Sp-Computer_Class_ZN_1_FLR_1 Sys-3 Flr-1 Sch-D HPlcmt-north ZN NECB System 3 PSZ Occ Sch Sunday, !- Sunday Schedule:Day Name\n   *************   1453   Sp-Computer_Class_ZN_1_FLR_1 Sys-3 Flr-1 Sch-D HPlcmt-north ZN NECB System 3 PSZ Occ Sch Monday, !- Monday Schedule:Day Name\n   *************   1454   Sp-Computer_Class_ZN_1_FLR_1 Sys-3 Flr-1 Sch-D HPlcmt-north ZN NECB System 3 PSZ Occ Sch Tuesday, !- Tuesday Schedule:Day Name\n   *************   1455   Sp-Computer_Class_ZN_1_FLR_1 Sys-3 Flr-1 Sch-D HPlcmt-north ZN NECB System 3 PSZ Occ Sch Wednesday, !- Wednesday Schedule:Day Name\n   *************   1456   Sp-Computer_Class_ZN_1_FLR_1 Sys-3 Flr-1 Sch-D HPlcmt-north ZN NECB System 3 PSZ Occ Sch Thursday, !- Thursday Schedule:Day Name\n   *************   1457   Sp-Computer_Class_ZN_1_FLR_1 Sys-3 Flr-1 Sch-D HPlcmt-north ZN NECB System 3 PSZ Occ Sch Friday, !- Friday Schedule:Day Name\n   *************   1458   Sp-Computer_Class_ZN_1_FLR_1 Sys-3 Flr-1 Sch-D HPlcmt-north ZN NECB System 3 PSZ Occ Sch Saturday, !- Saturday Schedule:Day Name\n   *************   1459   Sp-Computer_Class_ZN_1_FLR_1 Sys-3 Flr-1 Sch-D HPlcmt-north ZN NECB System 3 PSZ Occ Sch Default, !- Holiday Schedule:Day Name\n   *************   1460   Sp-Computer_Class_ZN_1_FLR_1 Sys-3 Flr-1 Sch-D HPlcmt-north ZN NECB System 3 PSZ Occ Sch Summer Design Day, !- SummerDesignDay Schedule:Day Name\n   *************   1461   Sp-Computer_Class_ZN_1_FLR_1 Sys-3 Flr-1 Sch-D HPlcmt-north ZN NECB System 3 PSZ Occ Sch Winter Design Day, !- WinterDesignDay Schedule:Day Name\n   ** Warning ** IP: IDF line~1461 Alpha Argument length exceeds maximum, will be truncated=  Sp-Computer_Class_ZN_1_FLR_1 Sys-3 Flr-1 Sch-D HPlcmt-north ZN NECB System 3 PSZ Occ Sch Winter Design Da\n   **   ~~~   ** Will be processed as Alpha=SP-COMPUTER_CLASS_ZN_1_FLR_1 SYS-3 FLR-1 SCH-D HPLCMT-NORTH ZN NECB SYSTEM 3 PSZ OCC SCH WINTER DESIGN DAY\n   ************* IDF Context for following error/warning message:\n   ************* Note -- lines truncated at 300 characters, if necessary...\n   *************   1481 Schedule:Day:Interval,\n   ************* indicated Name=Sp-Computer_Class_ZN_1_FLR_1 Sys-3 Flr-1 Sch-D HPlcmt-north ZN NECB System 3 PSZ Occ Sch Summer Design Day\n   ************* Only last 1 lines before error line shown.....\n   *************   1482   Sp-Computer_Class_ZN_1_FLR_1 Sys-3 Flr-1 Sch-D HPlcmt-north ZN NECB System 3 PSZ Occ Sch Summer Design Day, !- Name\n   ** Warning ** IP: IDF line~1482 Alpha Argument length exceeds maximum, will be truncated=  Sp-Computer_Class_ZN_1_FLR_1 Sys-3 Flr-1 Sch-D HPlcmt-north ZN NECB System 3 PSZ Occ Sch Summer Design Da\n   **   ~~~   ** Will be processed as Alpha=SP-COMPUTER_CLASS_ZN_1_FLR_1 SYS-3 FLR-1 SCH-D HPLCMT-NORTH ZN NECB SYSTEM 3 PSZ OCC SCH SUMMER DESIGN DAY\n   ************* IDF Context for following error/warning message:\n   ************* Note -- lines truncated at 300 characters, if necessary...\n   *************   1488 Schedule:Day:Interval,\n   ************* indicated Name=Sp-Computer_Class_ZN_1_FLR_1 Sys-3 Flr-1 Sch-D HPlcmt-north ZN NECB System 3 PSZ Occ Sch Winter Design Day\n   ************* Only last 1 lines before error line shown.....\n   *************   1489   Sp-Computer_Class_ZN_1_FLR_1 Sys-3 Flr-1 Sch-D HPlcmt-north ZN NECB System 3 PSZ Occ Sch Winter Design Day, !- Name\n   ** Warning ** IP: IDF line~1489 Alpha Argument length exceeds maximum, will be truncated=  Sp-Computer_Class_ZN_1_FLR_1 Sys-3 Flr-1 Sch-D HPlcmt-north ZN NECB System 3 PSZ Occ Sch Winter Design Da\n   **   ~~~   ** Will be processed as Alpha=SP-COMPUTER_CLASS_ZN_1_FLR_1 SYS-3 FLR-1 SCH-D HPLCMT-NORTH ZN NECB SYSTEM 3 PSZ OCC SCH WINTER DESIGN DAY\n   ************* IDF Context for following error/warning message:\n   ************* Note -- lines truncated at 300 characters, if necessary...\n   *************   1769 Schedule:Day:Interval,\n   ************* indicated Name=Sp-Corner_Class_1_Pod_1_ZN_1_FLR_1 Sys-3 Flr-1 Sch-D HPlcmt-south ZN NECB System 3 PSZ Occ Sch Sunday\n   ************* Only last 1 lines before error line shown.....\n   *************   1770   Sp-Corner_Class_1_Pod_1_ZN_1_FLR_1 Sys-3 Flr-1 Sch-D HPlcmt-south ZN NECB System 3 PSZ Occ Sch Sunday, !- Name\n   ** Warning ** IP: IDF line~1770 Alpha Argument length exceeds maximum, will be truncated=  Sp-Corner_Class_1_Pod_1_ZN_1_FLR_1 Sys-3 Flr-1 Sch-D HPlcmt-south ZN NECB System 3 PSZ Occ Sch Sunda\n   **   ~~~   ** Will be processed as Alpha=SP-CORNER_CLASS_1_POD_1_ZN_1_FLR_1 SYS-3 FLR-1 SCH-D HPLCMT-SOUTH ZN NECB SYSTEM 3 PSZ OCC SCH SUNDAY\n   ************* IDF Context for following error/warning message:\n   ************* Note -- lines truncated at 300 characters, if necessary...\n   *************   1776 Schedule:Day:Interval,\n   ************* indicated Name=Sp-Corner_Class_1_Pod_1_ZN_1_FLR_1 Sys-3 Flr-1 Sch-D HPlcmt-south ZN NECB System 3 PSZ Occ Sch Monday\n   ************* Only last 1 lines before error line shown.....\n   *************   1777   Sp-Corner_Class_1_Pod_1_ZN_1_FLR_1 Sys-3 Flr-1 Sch-D HPlcmt-south ZN NECB System 3 PSZ Occ Sch Monday, !- Name\n   ** Warning ** IP: IDF line~1777 Alpha Argument length exceeds maximum, will be truncated=  Sp-Corner_Class_1_Pod_1_ZN_1_FLR_1 Sys-3 Flr-1 Sch-D HPlcmt-south ZN NECB System 3 PSZ Occ Sch Monda\n   **   ~~~   ** Will be processed as Alpha=SP-CORNER_CLASS_1_POD_1_ZN_1_FLR_1 SYS-3 FLR-1 SCH-D HPLCMT-SOUTH ZN NECB SYSTEM 3 PSZ OCC SCH MONDAY\n   ************* IDF Context for following error/warning message:\n   ************* Note -- lines truncated at 300 characters, if necessary...\n   *************   1791 Schedule:Day:Interval,\n   ************* indicated Name=Sp-Corner_Class_1_Pod_1_ZN_1_FLR_1 Sys-3 Flr-1 Sch-D HPlcmt-south ZN NECB System 3 PSZ Occ Sch Tuesday\n   ************* Only last 1 lines before error line shown.....\n   *************   1792   Sp-Corner_Class_1_Pod_1_ZN_1_FLR_1 Sys-3 Flr-1 Sch-D HPlcmt-south ZN NECB System 3 PSZ Occ Sch Tuesday, !- Name\n   ** Warning ** IP: IDF line~1792 Alpha Argument length exceeds maximum, will be truncated=  Sp-Corner_Class_1_Pod_1_ZN_1_FLR_1 Sys-3 Flr-1 Sch-D HPlcmt-south ZN NECB System 3 PSZ Occ Sch Tuesda\n   **   ~~~   ** Will be processed as Alpha=SP-CORNER_CLASS_1_POD_1_ZN_1_FLR_1 SYS-3 FLR-1 SCH-D HPLCMT-SOUTH ZN NECB SYSTEM 3 PSZ OCC SCH TUESDAY\n   ************* IDF Context for following error/warning message:\n   ************* Note -- lines truncated at 300 characters, if necessary...\n   *************   1806 Schedule:Day:Interval,\n   ************* indicated Name=Sp-Corner_Class_1_Pod_1_ZN_1_FLR_1 Sys-3 Flr-1 Sch-D HPlcmt-south ZN NECB System 3 PSZ Occ Sch Wednesday\n   ************* Only last 1 lines before error line shown.....\n   *************   1807   Sp-Corner_Class_1_Pod_1_ZN_1_FLR_1 Sys-3 Flr-1 Sch-D HPlcmt-south ZN NECB System 3 PSZ Occ Sch Wednesday, !- Name\n   ** Warning ** IP: IDF line~1807 Alpha Argument length exceeds maximum, will be truncated=  Sp-Corner_Class_1_Pod_1_ZN_1_FLR_1 Sys-3 Flr-1 Sch-D HPlcmt-south ZN NECB System 3 PSZ Occ Sch Wednesda\n   **   ~~~   ** Will be processed as Alpha=SP-CORNER_CLASS_1_POD_1_ZN_1_FLR_1 SYS-3 FLR-1 SCH-D HPLCMT-SOUTH ZN NECB SYSTEM 3 PSZ OCC SCH WEDNESDAY\n   ************* IDF Context for following error/warning message:\n   ************* Note -- lines truncated at 300 characters, if necessary...\n   *************   1821 Schedule:Day:Interval,\n   ************* indicated Name=Sp-Corner_Class_1_Pod_1_ZN_1_FLR_1 Sys-3 Flr-1 Sch-D HPlcmt-south ZN NECB System 3 PSZ Occ Sch Thursday\n   ************* Only last 1 lines before error line shown.....\n   *************   1822   Sp-Corner_Class_1_Pod_1_ZN_1_FLR_1 Sys-3 Flr-1 Sch-D HPlcmt-south ZN NECB System 3 PSZ Occ Sch Thursday, !- Name\n   ** Warning ** IP: IDF line~1822 Alpha Argument length exceeds maximum, will be truncated=  Sp-Corner_Class_1_Pod_1_ZN_1_FLR_1 Sys-3 Flr-1 Sch-D HPlcmt-south ZN NECB System 3 PSZ Occ Sch Thursda\n   **   ~~~   ** Will be processed as Alpha=SP-CORNER_CLASS_1_POD_1_ZN_1_FLR_1 SYS-3 FLR-1 SCH-D HPLCMT-SOUTH ZN NECB SYSTEM 3 PSZ OCC SCH THURSDAY\n   ************* IDF Context for following error/warning message:\n   ************* Note -- lines truncated at 300 characters, if necessary...\n   *************   1836 Schedule:Day:Interval,\n   ************* indicated Name=Sp-Corner_Class_1_Pod_1_ZN_1_FLR_1 Sys-3 Flr-1 Sch-D HPlcmt-south ZN NECB System 3 PSZ Occ Sch Friday\n   ************* Only last 1 lines before error line shown.....\n   *************   1837   Sp-Corner_Class_1_Pod_1_ZN_1_FLR_1 Sys-3 Flr-1 Sch-D HPlcmt-south ZN NECB System 3 PSZ Occ Sch Friday, !- Name\n   ** Warning ** IP: IDF line~1837 Alpha Argument length exceeds maximum, will be truncated=  Sp-Corner_Class_1_Pod_1_ZN_1_FLR_1 Sys-3 Flr-1 Sch-D HPlcmt-south ZN NECB System 3 PSZ Occ Sch Frida\n   **   ~~~   ** Will be processed as Alpha=SP-CORNER_CLASS_1_POD_1_ZN_1_FLR_1 SYS-3 FLR-1 SCH-D HPLCMT-SOUTH ZN NECB SYSTEM 3 PSZ OCC SCH FRIDAY\n   ************* IDF Context for following error/warning message:\n   ************* Note -- lines truncated at 300 characters, if necessary...\n   *************   1851 Schedule:Day:Interval,\n   ************* indicated Name=Sp-Corner_Class_1_Pod_1_ZN_1_FLR_1 Sys-3 Flr-1 Sch-D HPlcmt-south ZN NECB System 3 PSZ Occ Sch Saturday\n   ************* Only last 1 lines before error line shown.....\n   *************   1852   Sp-Corner_Class_1_Pod_1_ZN_1_FLR_1 Sys-3 Flr-1 Sch-D HPlcmt-south ZN NECB System 3 PSZ Occ Sch Saturday, !- Name\n   ** Warning ** IP: IDF line~1852 Alpha Argument length exceeds maximum, will be truncated=  Sp-Corner_Class_1_Pod_1_ZN_1_FLR_1 Sys-3 Flr-1 Sch-D HPlcmt-south ZN NECB System 3 PSZ Occ Sch Saturda\n   **   ~~~   ** Will be processed as Alpha=SP-CORNER_CLASS_1_POD_1_ZN_1_FLR_1 SYS-3 FLR-1 SCH-D HPLCMT-SOUTH ZN NECB SYSTEM 3 PSZ OCC SCH SATURDAY\n   ************* IDF Context for following error/warning message:\n   ************* Note -- lines truncated at 300 characters, if necessary...\n   *************   1858 Schedule:Week:Daily,\n   ************* indicated Name=Schedule:Week:Daily {cd9c7a3f-3255-42ff-b7e8-c8cb7bba4491}\n   ************* Only last 2 lines before error line shown.....\n   *************   1859   Schedule:Week:Daily {cd9c7a3f-3255-42ff-b7e8-c8cb7bba4491}, !- Name\n   *************   1860   Sp-Corner_Class_1_Pod_1_ZN_1_FLR_1 Sys-3 Flr-1 Sch-D HPlcmt-south ZN NECB System 3 PSZ Occ Sch Sunday, !- Sunday Schedule:Day Name\n   ** Warning ** IP: IDF line~1860 Alpha Argument length exceeds maximum, will be truncated=  Sp-Corner_Class_1_Pod_1_ZN_1_FLR_1 Sys-3 Flr-1 Sch-D HPlcmt-south ZN NECB System 3 PSZ Occ Sch Sunda\n   **   ~~~   ** Will be processed as Alpha=SP-CORNER_CLASS_1_POD_1_ZN_1_FLR_1 SYS-3 FLR-1 SCH-D HPLCMT-SOUTH ZN NECB SYSTEM 3 PSZ OCC SCH SUNDAY\n   ************* IDF Context for following error/warning message:\n   ************* Note -- lines truncated at 300 characters, if necessary...\n   *************   1858 Schedule:Week:Daily,\n   ************* indicated Name=Schedule:Week:Daily {cd9c7a3f-3255-42ff-b7e8-c8cb7bba4491}\n   ************* Only last 3 lines before error line shown.....\n   *************   1859   Schedule:Week:Daily {cd9c7a3f-3255-42ff-b7e8-c8cb7bba4491}, !- Name\n   *************   1860   Sp-Corner_Class_1_Pod_1_ZN_1_FLR_1 Sys-3 Flr-1 Sch-D HPlcmt-south ZN NECB System 3 PSZ Occ Sch Sunday, !- Sunday Schedule:Day Name\n   *************   1861   Sp-Corner_Class_1_Pod_1_ZN_1_FLR_1 Sys-3 Flr-1 Sch-D HPlcmt-south ZN NECB System 3 PSZ Occ Sch Monday, !- Monday Schedule:Day Name\n   ** Warning ** IP: IDF line~1861 Alpha Argument length exceeds maximum, will be truncated=  Sp-Corner_Class_1_Pod_1_ZN_1_FLR_1 Sys-3 Flr-1 Sch-D HPlcmt-south ZN NECB System 3 PSZ Occ Sch Monda\n   **   ~~~   ** Will be processed as Alpha=SP-CORNER_CLASS_1_POD_1_ZN_1_FLR_1 SYS-3 FLR-1 SCH-D HPLCMT-SOUTH ZN NECB SYSTEM 3 PSZ OCC SCH MONDAY\n   ************* IDF Context for following error/warning message:\n   ************* Note -- lines truncated at 300 characters, if necessary...\n   *************   1858 Schedule:Week:Daily,\n   ************* indicated Name=Schedule:Week:Daily {cd9c7a3f-3255-42ff-b7e8-c8cb7bba4491}\n   ************* Only last 4 lines before error line shown.....\n   *************   1859   Schedule:Week:Daily {cd9c7a3f-3255-42ff-b7e8-c8cb7bba4491}, !- Name\n   *************   1860   Sp-Corner_Class_1_Pod_1_ZN_1_FLR_1 Sys-3 Flr-1 Sch-D HPlcmt-south ZN NECB System 3 PSZ Occ Sch Sunday, !- Sunday Schedule:Day Name\n   *************   1861   Sp-Corner_Class_1_Pod_1_ZN_1_FLR_1 Sys-3 Flr-1 Sch-D HPlcmt-south ZN NECB System 3 PSZ Occ Sch Monday, !- Monday Schedule:Day Name\n   *************   1862   Sp-Corner_Class_1_Pod_1_ZN_1_FLR_1 Sys-3 Flr-1 Sch-D HPlcmt-south ZN NECB System 3 PSZ Occ Sch Tuesday, !- Tuesday Schedule:Day Name\n   ** Warning ** IP: IDF line~1862 Alpha Argument length exceeds maximum, will be truncated=  Sp-Corner_Class_1_Pod_1_ZN_1_FLR_1 Sys-3 Flr-1 Sch-D HPlcmt-south ZN NECB System 3 PSZ Occ Sch Tuesda\n   **   ~~~   ** Will be processed as Alpha=SP-CORNER_CLASS_1_POD_1_ZN_1_FLR_1 SYS-3 FLR-1 SCH-D HPLCMT-SOUTH ZN NECB SYSTEM 3 PSZ OCC SCH TUESDAY\n   ************* IDF Context for following error/warning message:\n   ************* Note -- lines truncated at 300 characters, if necessary...\n   *************   1858 Schedule:Week:Daily,\n   ************* indicated Name=Schedule:Week:Daily {cd9c7a3f-3255-42ff-b7e8-c8cb7bba4491}\n   ************* Only last 5 lines before error line shown.....\n   *************   1859   Schedule:Week:Daily {cd9c7a3f-3255-42ff-b7e8-c8cb7bba4491}, !- Name\n   *************   1860   Sp-Corner_Class_1_Pod_1_ZN_1_FLR_1 Sys-3 Flr-1 Sch-D HPlcmt-south ZN NECB System 3 PSZ Occ Sch Sunday, !- Sunday Schedule:Day Name\n   *************   1861   Sp-Corner_Class_1_Pod_1_ZN_1_FLR_1 Sys-3 Flr-1 Sch-D HPlcmt-south ZN NECB System 3 PSZ Occ Sch Monday, !- Monday Schedule:Day Name\n   *************   1862   Sp-Corner_Class_1_Pod_1_ZN_1_FLR_1 Sys-3 Flr-1 Sch-D HPlcmt-south ZN NECB System 3 PSZ Occ Sch Tuesday, !- Tuesday Schedule:Day Name\n   *************   1863   Sp-Corner_Class_1_Pod_1_ZN_1_FLR_1 Sys-3 Flr-1 Sch-D HPlcmt-south ZN NECB System 3 PSZ Occ Sch Wednesday, !- Wednesday Schedule:Day Name\n   ** Warning ** IP: IDF line~1863 Alpha Argument length exceeds maximum, will be truncated=  Sp-Corner_Class_1_Pod_1_ZN_1_FLR_1 Sys-3 Flr-1 Sch-D HPlcmt-south ZN NECB System 3 PSZ Occ Sch Wednesda\n   **   ~~~   ** Will be processed as Alpha=SP-CORNER_CLASS_1_POD_1_ZN_1_FLR_1 SYS-3 FLR-1 SCH-D HPLCMT-SOUTH ZN NECB SYSTEM 3 PSZ OCC SCH WEDNESDAY\n   ************* IDF Context for following error/warning message:\n   ************* Note -- lines truncated at 300 characters, if necessary...\n   *************   1858 Schedule:Week:Daily,\n   ************* indicated Name=Schedule:Week:Daily {cd9c7a3f-3255-42ff-b7e8-c8cb7bba4491}\n   ************* Only last 6 lines before error line shown.....\n   *************   1859   Schedule:Week:Daily {cd9c7a3f-3255-42ff-b7e8-c8cb7bba4491}, !- Name\n   *************   1860   Sp-Corner_Class_1_Pod_1_ZN_1_FLR_1 Sys-3 Flr-1 Sch-D HPlcmt-south ZN NECB System 3 PSZ Occ Sch Sunday, !- Sunday Schedule:Day Name\n   *************   1861   Sp-Corner_Class_1_Pod_1_ZN_1_FLR_1 Sys-3 Flr-1 Sch-D HPlcmt-south ZN NECB System 3 PSZ Occ Sch Monday, !- Monday Schedule:Day Name\n   *************   1862   Sp-Corner_Class_1_Pod_1_ZN_1_FLR_1 Sys-3 Flr-1 Sch-D HPlcmt-south ZN NECB System 3 PSZ Occ Sch Tuesday, !- Tuesday Schedule:Day Name\n   *************   1863   Sp-Corner_Class_1_Pod_1_ZN_1_FLR_1 Sys-3 Flr-1 Sch-D HPlcmt-south ZN NECB System 3 PSZ Occ Sch Wednesday, !- Wednesday Schedule:Day Name\n   *************   1864   Sp-Corner_Class_1_Pod_1_ZN_1_FLR_1 Sys-3 Flr-1 Sch-D HPlcmt-south ZN NECB System 3 PSZ Occ Sch Thursday, !- Thursday Schedule:Day Name\n   ** Warning ** IP: IDF line~1864 Alpha Argument length exceeds maximum, will be truncated=  Sp-Corner_Class_1_Pod_1_ZN_1_FLR_1 Sys-3 Flr-1 Sch-D HPlcmt-south ZN NECB System 3 PSZ Occ Sch Thursda\n   **   ~~~   ** Will be processed as Alpha=SP-CORNER_CLASS_1_POD_1_ZN_1_FLR_1 SYS-3 FLR-1 SCH-D HPLCMT-SOUTH ZN NECB SYSTEM 3 PSZ OCC SCH THURSDAY\n   ************* IDF Context for following error/warning message:\n   ************* Note -- lines truncated at 300 characters, if necessary...\n   *************   1858 Schedule:Week:Daily,\n   ************* indicated Name=Schedule:Week:Daily {cd9c7a3f-3255-42ff-b7e8-c8cb7bba4491}\n   ************* Only last 7 lines before error line shown.....\n   *************   1859   Schedule:Week:Daily {cd9c7a3f-3255-42ff-b7e8-c8cb7bba4491}, !- Name\n   *************   1860   Sp-Corner_Class_1_Pod_1_ZN_1_FLR_1 Sys-3 Flr-1 Sch-D HPlcmt-south ZN NECB System 3 PSZ Occ Sch Sunday, !- Sunday Schedule:Day Name\n   *************   1861   Sp-Corner_Class_1_Pod_1_ZN_1_FLR_1 Sys-3 Flr-1 Sch-D HPlcmt-south ZN NECB System 3 PSZ Occ Sch Monday, !- Monday Schedule:Day Name\n   *************   1862   Sp-Corner_Class_1_Pod_1_ZN_1_FLR_1 Sys-3 Flr-1 Sch-D HPlcmt-south ZN NECB System 3 PSZ Occ Sch Tuesday, !- Tuesday Schedule:Day Name\n   *************   1863   Sp-Corner_Class_1_Pod_1_ZN_1_FLR_1 Sys-3 Flr-1 Sch-D HPlcmt-south ZN NECB System 3 PSZ Occ Sch Wednesday, !- Wednesday Schedule:Day Name\n   *************   1864   Sp-Corner_Class_1_Pod_1_ZN_1_FLR_1 Sys-3 Flr-1 Sch-D HPlcmt-south ZN NECB System 3 PSZ Occ Sch Thursday, !- Thursday Schedule:Day Name\n   *************   1865   Sp-Corner_Class_1_Pod_1_ZN_1_FLR_1 Sys-3 Flr-1 Sch-D HPlcmt-south ZN NECB System 3 PSZ Occ Sch Friday, !- Friday Schedule:Day Name\n   ** Warning ** IP: IDF line~1865 Alpha Argument length exceeds maximum, will be truncated=  Sp-Corner_Class_1_Pod_1_ZN_1_FLR_1 Sys-3 Flr-1 Sch-D HPlcmt-south ZN NECB System 3 PSZ Occ Sch Frida\n   **   ~~~   ** Will be processed as Alpha=SP-CORNER_CLASS_1_POD_1_ZN_1_FLR_1 SYS-3 FLR-1 SCH-D HPLCMT-SOUTH ZN NECB SYSTEM 3 PSZ OCC SCH FRIDAY\n   ************* IDF Context for following error/warning message:\n   ************* Note -- lines truncated at 300 characters, if necessary...\n   *************   1858 Schedule:Week:Daily,\n   ************* indicated Name=Schedule:Week:Daily {cd9c7a3f-3255-42ff-b7e8-c8cb7bba4491}\n   ************* Only last 8 lines before error line shown.....\n   *************   1859   Schedule:Week:Daily {cd9c7a3f-3255-42ff-b7e8-c8cb7bba4491}, !- Name\n   *************   1860   Sp-Corner_Class_1_Pod_1_ZN_1_FLR_1 Sys-3 Flr-1 Sch-D HPlcmt-south ZN NECB System 3 PSZ Occ Sch Sunday, !- Sunday Schedule:Day Name\n   *************   1861   Sp-Corner_Class_1_Pod_1_ZN_1_FLR_1 Sys-3 Flr-1 Sch-D HPlcmt-south ZN NECB System 3 PSZ Occ Sch Monday, !- Monday Schedule:Day Name\n   *************   1862   Sp-Corner_Class_1_Pod_1_ZN_1_FLR_1 Sys-3 Flr-1 Sch-D HPlcmt-south ZN NECB System 3 PSZ Occ Sch Tuesday, !- Tuesday Schedule:Day Name\n   *************   1863   Sp-Corner_Class_1_Pod_1_ZN_1_FLR_1 Sys-3 Flr-1 Sch-D HPlcmt-south ZN NECB System 3 PSZ Occ Sch Wednesday, !- Wednesday Schedule:Day Name\n   *************   1864   Sp-Corner_Class_1_Pod_1_ZN_1_FLR_1 Sys-3 Flr-1 Sch-D HPlcmt-south ZN NECB System 3 PSZ Occ Sch Thursday, !- Thursday Schedule:Day Name\n   *************   1865   Sp-Corner_Class_1_Pod_1_ZN_1_FLR_1 Sys-3 Flr-1 Sch-D HPlcmt-south ZN NECB System 3 PSZ Occ Sch Friday, !- Friday Schedule:Day Name\n   *************   1866   Sp-Corner_Class_1_Pod_1_ZN_1_FLR_1 Sys-3 Flr-1 Sch-D HPlcmt-south ZN NECB System 3 PSZ Occ Sch Saturday, !- Saturday Schedule:Day Name\n   ** Warning ** IP: IDF line~1866 Alpha Argument length exceeds maximum, will be truncated=  Sp-Corner_Class_1_Pod_1_ZN_1_FLR_1 Sys-3 Flr-1 Sch-D HPlcmt-south ZN NECB System 3 PSZ Occ Sch Saturda\n   **   ~~~   ** Will be processed as Alpha=SP-CORNER_CLASS_1_POD_1_ZN_1_FLR_1 SYS-3 FLR-1 SCH-D HPLCMT-SOUTH ZN NECB SYSTEM 3 PSZ OCC SCH SATURDAY\n   ************* IDF Context for following error/warning message:\n   ************* Note -- lines truncated at 300 characters, if necessary...\n   *************   1858 Schedule:Week:Daily,\n   ************* indicated Name=Schedule:Week:Daily {cd9c7a3f-3255-42ff-b7e8-c8cb7bba4491}\n   ************* Only last 9 lines before error line shown.....\n   *************   1859   Schedule:Week:Daily {cd9c7a3f-3255-42ff-b7e8-c8cb7bba4491}, !- Name\n   *************   1860   Sp-Corner_Class_1_Pod_1_ZN_1_FLR_1 Sys-3 Flr-1 Sch-D HPlcmt-south ZN NECB System 3 PSZ Occ Sch Sunday, !- Sunday Schedule:Day Name\n   *************   1861   Sp-Corner_Class_1_Pod_1_ZN_1_FLR_1 Sys-3 Flr-1 Sch-D HPlcmt-south ZN NECB System 3 PSZ Occ Sch Monday, !- Monday Schedule:Day Name\n   *************   1862   Sp-Corner_Class_1_Pod_1_ZN_1_FLR_1 Sys-3 Flr-1 Sch-D HPlcmt-south ZN NECB System 3 PSZ Occ Sch Tuesday, !- Tuesday Schedule:Day Name\n   *************   1863   Sp-Corner_Class_1_Pod_1_ZN_1_FLR_1 Sys-3 Flr-1 Sch-D HPlcmt-south ZN NECB System 3 PSZ Occ Sch Wednesday, !- Wednesday Schedule:Day Name\n   *************   1864   Sp-Corner_Class_1_Pod_1_ZN_1_FLR_1 Sys-3 Flr-1 Sch-D HPlcmt-south ZN NECB System 3 PSZ Occ Sch Thursday, !- Thursday Schedule:Day Name\n   *************   1865   Sp-Corner_Class_1_Pod_1_ZN_1_FLR_1 Sys-3 Flr-1 Sch-D HPlcmt-south ZN NECB System 3 PSZ Occ Sch Friday, !- Friday Schedule:Day Name\n   *************   1866   Sp-Corner_Class_1_Pod_1_ZN_1_FLR_1 Sys-3 Flr-1 Sch-D HPlcmt-south ZN NECB System 3 PSZ Occ Sch Saturday, !- Saturday Schedule:Day Name\n   *************   1867   Sp-Corner_Class_1_Pod_1_ZN_1_FLR_1 Sys-3 Flr-1 Sch-D HPlcmt-south ZN NECB System 3 PSZ Occ Sch Default, !- Holiday Schedule:Day Name\n   ** Warning ** IP: IDF line~1867 Alpha Argument length exceeds maximum, will be truncated=  Sp-Corner_Class_1_Pod_1_ZN_1_FLR_1 Sys-3 Flr-1 Sch-D HPlcmt-south ZN NECB System 3 PSZ Occ Sch Defaul\n   **   ~~~   ** Will be processed as Alpha=SP-CORNER_CLASS_1_POD_1_ZN_1_FLR_1 SYS-3 FLR-1 SCH-D HPLCMT-SOUTH ZN NECB SYSTEM 3 PSZ OCC SCH DEFAULT\n   ************* IDF Context for following error/warning message:\n   ************* Note -- lines truncated at 300 characters, if necessary...\n   *************   1858 Schedule:Week:Daily,\n   ************* indicated Name=Schedule:Week:Daily {cd9c7a3f-3255-42ff-b7e8-c8cb7bba4491}\n   ************* Only last 10 lines before error line shown.....\n   *************   1859   Schedule:Week:Daily {cd9c7a3f-3255-42ff-b7e8-c8cb7bba4491}, !- Name\n   *************   1860   Sp-Corner_Class_1_Pod_1_ZN_1_FLR_1 Sys-3 Flr-1 Sch-D HPlcmt-south ZN NECB System 3 PSZ Occ Sch Sunday, !- Sunday Schedule:Day Name\n   *************   1861   Sp-Corner_Class_1_Pod_1_ZN_1_FLR_1 Sys-3 Flr-1 Sch-D HPlcmt-south ZN NECB System 3 PSZ Occ Sch Monday, !- Monday Schedule:Day Name\n   *************   1862   Sp-Corner_Class_1_Pod_1_ZN_1_FLR_1 Sys-3 Flr-1 Sch-D HPlcmt-south ZN NECB System 3 PSZ Occ Sch Tuesday, !- Tuesday Schedule:Day Name\n   *************   1863   Sp-Corner_Class_1_Pod_1_ZN_1_FLR_1 Sys-3 Flr-1 Sch-D HPlcmt-south ZN NECB System 3 PSZ Occ Sch Wednesday, !- Wednesday Schedule:Day Name\n   *************   1864   Sp-Corner_Class_1_Pod_1_ZN_1_FLR_1 Sys-3 Flr-1 Sch-D HPlcmt-south ZN NECB System 3 PSZ Occ Sch Thursday, !- Thursday Schedule:Day Name\n   *************   1865   Sp-Corner_Class_1_Pod_1_ZN_1_FLR_1 Sys-3 Flr-1 Sch-D HPlcmt-south ZN NECB System 3 PSZ Occ Sch Friday, !- Friday Schedule:Day Name\n   *************   1866   Sp-Corner_Class_1_Pod_1_ZN_1_FLR_1 Sys-3 Flr-1 Sch-D HPlcmt-south ZN NECB System 3 PSZ Occ Sch Saturday, !- Saturday Schedule:Day Name\n   *************   1867   Sp-Corner_Class_1_Pod_1_ZN_1_FLR_1 Sys-3 Flr-1 Sch-D HPlcmt-south ZN NECB System 3 PSZ Occ Sch Default, !- Holiday Schedule:Day Name\n   *************   1868   Sp-Corner_Class_1_Pod_1_ZN_1_FLR_1 Sys-3 Flr-1 Sch-D HPlcmt-south ZN NECB System 3 PSZ Occ Sch Summer Design Day, !- SummerDesignDay Schedule:Day Name\n   ** Warning ** IP: IDF line~1868 Alpha Argument length exceeds maximum, will be truncated=  Sp-Corner_Class_1_Pod_1_ZN_1_FLR_1 Sys-3 Flr-1 Sch-D HPlcmt-south ZN NECB System 3 PSZ Occ Sch Summer Design Da\n   **   ~~~   ** Will be processed as Alpha=SP-CORNER_CLASS_1_POD_1_ZN_1_FLR_1 SYS-3 FLR-1 SCH-D HPLCMT-SOUTH ZN NECB SYSTEM 3 PSZ OCC SCH SUMMER DESIGN DAY\n   ************* IDF Context for following error/warning message:\n   ************* Note -- lines truncated at 300 characters, if necessary...\n   *************   1858 Schedule:Week:Daily,\n   ************* indicated Name=Schedule:Week:Daily {cd9c7a3f-3255-42ff-b7e8-c8cb7bba4491}\n   ************* Only last 10 lines before error line shown.....\n   *************   1860   Sp-Corner_Class_1_Pod_1_ZN_1_FLR_1 Sys-3 Flr-1 Sch-D HPlcmt-south ZN NECB System 3 PSZ Occ Sch Sunday, !- Sunday Schedule:Day Name\n   *************   1861   Sp-Corner_Class_1_Pod_1_ZN_1_FLR_1 Sys-3 Flr-1 Sch-D HPlcmt-south ZN NECB System 3 PSZ Occ Sch Monday, !- Monday Schedule:Day Name\n   *************   1862   Sp-Corner_Class_1_Pod_1_ZN_1_FLR_1 Sys-3 Flr-1 Sch-D HPlcmt-south ZN NECB System 3 PSZ Occ Sch Tuesday, !- Tuesday Schedule:Day Name\n   *************   1863   Sp-Corner_Class_1_Pod_1_ZN_1_FLR_1 Sys-3 Flr-1 Sch-D HPlcmt-south ZN NECB System 3 PSZ Occ Sch Wednesday, !- Wednesday Schedule:Day Name\n   *************   1864   Sp-Corner_Class_1_Pod_1_ZN_1_FLR_1 Sys-3 Flr-1 Sch-D HPlcmt-south ZN NECB System 3 PSZ Occ Sch Thursday, !- Thursday Schedule:Day Name\n   *************   1865   Sp-Corner_Class_1_Pod_1_ZN_1_FLR_1 Sys-3 Flr-1 Sch-D HPlcmt-south ZN NECB System 3 PSZ Occ Sch Friday, !- Friday Schedule:Day Name\n   *************   1866   Sp-Corner_Class_1_Pod_1_ZN_1_FLR_1 Sys-3 Flr-1 Sch-D HPlcmt-south ZN NECB System 3 PSZ Occ Sch Saturday, !- Saturday Schedule:Day Name\n   *************   1867   Sp-Corner_Class_1_Pod_1_ZN_1_FLR_1 Sys-3 Flr-1 Sch-D HPlcmt-south ZN NECB System 3 PSZ Occ Sch Default, !- Holiday Schedule:Day Name\n   *************   1868   Sp-Corner_Class_1_Pod_1_ZN_1_FLR_1 Sys-3 Flr-1 Sch-D HPlcmt-south ZN NECB System 3 PSZ Occ Sch Summer Design Day, !- SummerDesignDay Schedule:Day Name\n   *************   1869   Sp-Corner_Class_1_Pod_1_ZN_1_FLR_1 Sys-3 Flr-1 Sch-D HPlcmt-south ZN NECB System 3 PSZ Occ Sch Winter Design Day, !- WinterDesignDay Schedule:Day Name\n   ** Warning ** IP: IDF line~1869 Alpha Argument length exceeds maximum, will be truncated=  Sp-Corner_Class_1_Pod_1_ZN_1_FLR_1 Sys-3 Flr-1 Sch-D HPlcmt-south ZN NECB System 3 PSZ Occ Sch Winter Design Da\n   **   ~~~   ** Will be processed as Alpha=SP-CORNER_CLASS_1_POD_1_ZN_1_FLR_1 SYS-3 FLR-1 SCH-D HPLCMT-SOUTH ZN NECB SYSTEM 3 PSZ OCC SCH WINTER DESIGN DAY\n   ************* IDF Context for following error/warning message:\n   ************* Note -- lines truncated at 300 characters, if necessary...\n   *************   1858 Schedule:Week:Daily,\n   ************* indicated Name=Schedule:Week:Daily {cd9c7a3f-3255-42ff-b7e8-c8cb7bba4491}\n   ************* Only last 10 lines before error line shown.....\n   *************   1861   Sp-Corner_Class_1_Pod_1_ZN_1_FLR_1 Sys-3 Flr-1 Sch-D HPlcmt-south ZN NECB System 3 PSZ Occ Sch Monday, !- Monday Schedule:Day Name\n   *************   1862   Sp-Corner_Class_1_Pod_1_ZN_1_FLR_1 Sys-3 Flr-1 Sch-D HPlcmt-south ZN NECB System 3 PSZ Occ Sch Tuesday, !- Tuesday Schedule:Day Name\n   *************   1863   Sp-Corner_Class_1_Pod_1_ZN_1_FLR_1 Sys-3 Flr-1 Sch-D HPlcmt-south ZN NECB System 3 PSZ Occ Sch Wednesday, !- Wednesday Schedule:Day Name\n   *************   1864   Sp-Corner_Class_1_Pod_1_ZN_1_FLR_1 Sys-3 Flr-1 Sch-D HPlcmt-south ZN NECB System 3 PSZ Occ Sch Thursday, !- Thursday Schedule:Day Name\n   *************   1865   Sp-Corner_Class_1_Pod_1_ZN_1_FLR_1 Sys-3 Flr-1 Sch-D HPlcmt-south ZN NECB System 3 PSZ Occ Sch Friday, !- Friday Schedule:Day Name\n   *************   1866   Sp-Corner_Class_1_Pod_1_ZN_1_FLR_1 Sys-3 Flr-1 Sch-D HPlcmt-south ZN NECB System 3 PSZ Occ Sch Saturday, !- Saturday Schedule:Day Name\n   *************   1867   Sp-Corner_Class_1_Pod_1_ZN_1_FLR_1 Sys-3 Flr-1 Sch-D HPlcmt-south ZN NECB System 3 PSZ Occ Sch Default, !- Holiday Schedule:Day Name\n   *************   1868   Sp-Corner_Class_1_Pod_1_ZN_1_FLR_1 Sys-3 Flr-1 Sch-D HPlcmt-south ZN NECB System 3 PSZ Occ Sch Summer Design Day, !- SummerDesignDay Schedule:Day Name\n   *************   1869   Sp-Corner_Class_1_Pod_1_ZN_1_FLR_1 Sys-3 Flr-1 Sch-D HPlcmt-south ZN NECB System 3 PSZ Occ Sch Winter Design Day, !- WinterDesignDay Schedule:Day Name\n   *************   1870   Sp-Corner_Class_1_Pod_1_ZN_1_FLR_1 Sys-3 Flr-1 Sch-D HPlcmt-south ZN NECB System 3 PSZ Occ Sch Default, !- CustomDay1 Schedule:Day Name\n   ** Warning ** IP: IDF line~1870 Alpha Argument length exceeds maximum, will be truncated=  Sp-Corner_Class_1_Pod_1_ZN_1_FLR_1 Sys-3 Flr-1 Sch-D HPlcmt-south ZN NECB System 3 PSZ Occ Sch Defaul\n   **   ~~~   ** Will be processed as Alpha=SP-CORNER_CLASS_1_POD_1_ZN_1_FLR_1 SYS-3 FLR-1 SCH-D HPLCMT-SOUTH ZN NECB SYSTEM 3 PSZ OCC SCH DEFAULT\n   ************* IDF Context for following error/warning message:\n   ************* Note -- lines truncated at 300 characters, if necessary...\n   *************   1858 Schedule:Week:Daily,\n   ************* indicated Name=Schedule:Week:Daily {cd9c7a3f-3255-42ff-b7e8-c8cb7bba4491}\n   ************* Only last 10 lines before error line shown.....\n   *************   1862   Sp-Corner_Class_1_Pod_1_ZN_1_FLR_1 Sys-3 Flr-1 Sch-D HPlcmt-south ZN NECB System 3 PSZ Occ Sch Tuesday, !- Tuesday Schedule:Day Name\n   *************   1863   Sp-Corner_Class_1_Pod_1_ZN_1_FLR_1 Sys-3 Flr-1 Sch-D HPlcmt-south ZN NECB System 3 PSZ Occ Sch Wednesday, !- Wednesday Schedule:Day Name\n   *************   1864   Sp-Corner_Class_1_Pod_1_ZN_1_FLR_1 Sys-3 Flr-1 Sch-D HPlcmt-south ZN NECB System 3 PSZ Occ Sch Thursday, !- Thursday Schedule:Day Name\n   *************   1865   Sp-Corner_Class_1_Pod_1_ZN_1_FLR_1 Sys-3 Flr-1 Sch-D HPlcmt-south ZN NECB System 3 PSZ Occ Sch Friday, !- Friday Schedule:Day Name\n   *************   1866   Sp-Corner_Class_1_Pod_1_ZN_1_FLR_1 Sys-3 Flr-1 Sch-D HPlcmt-south ZN NECB System 3 PSZ Occ Sch Saturday, !- Saturday Schedule:Day Name\n   *************   1867   Sp-Corner_Class_1_Pod_1_ZN_1_FLR_1 Sys-3 Flr-1 Sch-D HPlcmt-south ZN NECB System 3 PSZ Occ Sch Default, !- Holiday Schedule:Day Name\n   *************   1868   Sp-Corner_Class_1_Pod_1_ZN_1_FLR_1 Sys-3 Flr-1 Sch-D HPlcmt-south ZN NECB System 3 PSZ Occ Sch Summer Design Day, !- SummerDesignDay Schedule:Day Name\n   *************   1869   Sp-Corner_Class_1_Pod_1_ZN_1_FLR_1 Sys-3 Flr-1 Sch-D HPlcmt-south ZN NECB System 3 PSZ Occ Sch Winter Design Day, !- WinterDesignDay Schedule:Day Name\n   *************   1870   Sp-Corner_Class_1_Pod_1_ZN_1_FLR_1 Sys-3 Flr-1 Sch-D HPlcmt-south ZN NECB System 3 PSZ Occ Sch Default, !- CustomDay1 Schedule:Day Name\n   *************   1871   Sp-Corner_Class_1_Pod_1_ZN_1_FLR_1 Sys-3 Flr-1 Sch-D HPlcmt-south ZN NECB System 3 PSZ Occ Sch Default; !- CustomDay2 Schedule:Day Name\n   ** Warning ** IP: IDF line~1871 Alpha Argument length exceeds maximum, will be truncated=  Sp-Corner_Class_1_Pod_1_ZN_1_FLR_1 Sys-3 Flr-1 Sch-D HPlcmt-south ZN NECB System 3 PSZ Occ Sch Defaul\n   **   ~~~   ** Will be processed as Alpha=SP-CORNER_CLASS_1_POD_1_ZN_1_FLR_1 SYS-3 FLR-1 SCH-D HPLCMT-SOUTH ZN NECB SYSTEM 3 PSZ OCC SCH DEFAULT\n   ************* IDF Context for following error/warning message:\n   ************* Note -- lines truncated at 300 characters, if necessary...\n   *************   1882 Schedule:Day:Interval,\n   ************* indicated Name=Sp-Corner_Class_1_Pod_1_ZN_1_FLR_1 Sys-3 Flr-1 Sch-D HPlcmt-south ZN NECB System 3 PSZ Occ Sch Default\n   ************* Only last 1 lines before error line shown.....\n   *************   1883   Sp-Corner_Class_1_Pod_1_ZN_1_FLR_1 Sys-3 Flr-1 Sch-D HPlcmt-south ZN NECB System 3 PSZ Occ Sch Default, !- Name\n   ** Warning ** IP: IDF line~1883 Alpha Argument length exceeds maximum, will be truncated=  Sp-Corner_Class_1_Pod_1_ZN_1_FLR_1 Sys-3 Flr-1 Sch-D HPlcmt-south ZN NECB System 3 PSZ Occ Sch Defaul\n   **   ~~~   ** Will be processed as Alpha=SP-CORNER_CLASS_1_POD_1_ZN_1_FLR_1 SYS-3 FLR-1 SCH-D HPLCMT-SOUTH ZN NECB SYSTEM 3 PSZ OCC SCH DEFAULT\n   ************* IDF Context for following error/warning message:\n   ************* Note -- lines truncated at 300 characters, if necessary...\n   *************   1889 Schedule:Day:Interval,\n   ************* indicated Name=Sp-Corner_Class_1_Pod_1_ZN_1_FLR_1 Sys-3 Flr-1 Sch-D HPlcmt-south ZN NECB System 3 PSZ Occ Sch Summer Design Day\n   ************* Only last 1 lines before error line shown.....\n   *************   1890   Sp-Corner_Class_1_Pod_1_ZN_1_FLR_1 Sys-3 Flr-1 Sch-D HPlcmt-south ZN NECB System 3 PSZ Occ Sch Summer Design Day, !- Name\n   ** Warning ** IP: IDF line~1890 Alpha Argument length exceeds maximum, will be truncated=  Sp-Corner_Class_1_Pod_1_ZN_1_FLR_1 Sys-3 Flr-1 Sch-D HPlcmt-south ZN NECB System 3 PSZ Occ Sch Summer Design Da\n   **   ~~~   ** Will be processed as Alpha=SP-CORNER_CLASS_1_POD_1_ZN_1_FLR_1 SYS-3 FLR-1 SCH-D HPLCMT-SOUTH ZN NECB SYSTEM 3 PSZ OCC SCH SUMMER DESIGN DAY\n   ************* IDF Context for following error/warning message:\n   ************* Note -- lines truncated at 300 characters, if necessary...\n   *************   1896 Schedule:Day:Interval,\n   ************* indicated Name=Sp-Corner_Class_1_Pod_1_ZN_1_FLR_1 Sys-3 Flr-1 Sch-D HPlcmt-south ZN NECB System 3 PSZ Occ Sch Winter Design Day\n   ************* Only last 1 lines before error line shown.....\n   *************   1897   Sp-Corner_Class_1_Pod_1_ZN_1_FLR_1 Sys-3 Flr-1 Sch-D HPlcmt-south ZN NECB System 3 PSZ Occ Sch Winter Design Day, !- Name\n   ** Warning ** IP: IDF line~1897 Alpha Argument length exceeds maximum, will be truncated=  Sp-Corner_Class_1_Pod_1_ZN_1_FLR_1 Sys-3 Flr-1 Sch-D HPlcmt-south ZN NECB System 3 PSZ Occ Sch Winter Design Da\n   **   ~~~   ** Will be processed as Alpha=SP-CORNER_CLASS_1_POD_1_ZN_1_FLR_1 SYS-3 FLR-1 SCH-D HPLCMT-SOUTH ZN NECB SYSTEM 3 PSZ OCC SCH WINTER DESIGN DAY\n   ************* IDF Context for following error/warning message:\n   ************* Note -- lines truncated at 300 characters, if necessary...\n   *************   2169 Schedule:Day:Interval,\n   ************* indicated Name=Sp-Corner_Class_1_Pod_2_ZN_1_FLR_1 Sys-3 Flr-1 Sch-D HPlcmt-south ZN NECB System 3 PSZ Occ Sch Sunday\n   ************* Only last 1 lines before error line shown.....\n   *************   2170   Sp-Corner_Class_1_Pod_2_ZN_1_FLR_1 Sys-3 Flr-1 Sch-D HPlcmt-south ZN NECB System 3 PSZ Occ Sch Sunday, !- Name\n   ** Warning ** IP: IDF line~2170 Alpha Argument length exceeds maximum, will be truncated=  Sp-Corner_Class_1_Pod_2_ZN_1_FLR_1 Sys-3 Flr-1 Sch-D HPlcmt-south ZN NECB System 3 PSZ Occ Sch Sunda\n   **   ~~~   ** Will be processed as Alpha=SP-CORNER_CLASS_1_POD_2_ZN_1_FLR_1 SYS-3 FLR-1 SCH-D HPLCMT-SOUTH ZN NECB SYSTEM 3 PSZ OCC SCH SUNDAY\n   ************* IDF Context for following error/warning message:\n   ************* Note -- lines truncated at 300 characters, if necessary...\n   *************   2176 Schedule:Day:Interval,\n   ************* indicated Name=Sp-Corner_Class_1_Pod_2_ZN_1_FLR_1 Sys-3 Flr-1 Sch-D HPlcmt-south ZN NECB System 3 PSZ Occ Sch Monday\n   ************* Only last 1 lines before error line shown.....\n   *************   2177   Sp-Corner_Class_1_Pod_2_ZN_1_FLR_1 Sys-3 Flr-1 Sch-D HPlcmt-south ZN NECB System 3 PSZ Occ Sch Monday, !- Name\n   ** Warning ** IP: IDF line~2177 Alpha Argument length exceeds maximum, will be truncated=  Sp-Corner_Class_1_Pod_2_ZN_1_FLR_1 Sys-3 Flr-1 Sch-D HPlcmt-south ZN NECB System 3 PSZ Occ Sch Monda\n   **   ~~~   ** Will be processed as Alpha=SP-CORNER_CLASS_1_POD_2_ZN_1_FLR_1 SYS-3 FLR-1 SCH-D HPLCMT-SOUTH ZN NECB SYSTEM 3 PSZ OCC SCH MONDAY\n   ************* IDF Context for following error/warning message:\n   ************* Note -- lines truncated at 300 characters, if necessary...\n   *************   2191 Schedule:Day:Interval,\n   ************* indicated Name=Sp-Corner_Class_1_Pod_2_ZN_1_FLR_1 Sys-3 Flr-1 Sch-D HPlcmt-south ZN NECB System 3 PSZ Occ Sch Tuesday\n   ************* Only last 1 lines before error line shown.....\n   *************   2192   Sp-Corner_Class_1_Pod_2_ZN_1_FLR_1 Sys-3 Flr-1 Sch-D HPlcmt-south ZN NECB System 3 PSZ Occ Sch Tuesday, !- Name\n   ** Warning ** IP: IDF line~2192 Alpha Argument length exceeds maximum, will be truncated=  Sp-Corner_Class_1_Pod_2_ZN_1_FLR_1 Sys-3 Flr-1 Sch-D HPlcmt-south ZN NECB System 3 PSZ Occ Sch Tuesda\n   **   ~~~   ** Will be processed as Alpha=SP-CORNER_CLASS_1_POD_2_ZN_1_FLR_1 SYS-3 FLR-1 SCH-D HPLCMT-SOUTH ZN NECB SYSTEM 3 PSZ OCC SCH TUESDAY\n   ************* IDF Context for following error/warning message:\n   ************* Note -- lines truncated at 300 characters, if necessary...\n   *************   2206 Schedule:Day:Interval,\n   ************* indicated Name=Sp-Corner_Class_1_Pod_2_ZN_1_FLR_1 Sys-3 Flr-1 Sch-D HPlcmt-south ZN NECB System 3 PSZ Occ Sch Wednesday\n   ************* Only last 1 lines before error line shown.....\n   *************   2207   Sp-Corner_Class_1_Pod_2_ZN_1_FLR_1 Sys-3 Flr-1 Sch-D HPlcmt-south ZN NECB System 3 PSZ Occ Sch Wednesday, !- Name\n   ** Warning ** IP: IDF line~2207 Alpha Argument length exceeds maximum, will be truncated=  Sp-Corner_Class_1_Pod_2_ZN_1_FLR_1 Sys-3 Flr-1 Sch-D HPlcmt-south ZN NECB System 3 PSZ Occ Sch Wednesda\n   **   ~~~   ** Will be processed as Alpha=SP-CORNER_CLASS_1_POD_2_ZN_1_FLR_1 SYS-3 FLR-1 SCH-D HPLCMT-SOUTH ZN NECB SYSTEM 3 PSZ OCC SCH WEDNESDAY\n   ************* IDF Context for following error/warning message:\n   ************* Note -- lines truncated at 300 characters, if necessary...\n   *************   2221 Schedule:Day:Interval,\n   ************* indicated Name=Sp-Corner_Class_1_Pod_2_ZN_1_FLR_1 Sys-3 Flr-1 Sch-D HPlcmt-south ZN NECB System 3 PSZ Occ Sch Thursday\n   ************* Only last 1 lines before error line shown.....\n   *************   2222   Sp-Corner_Class_1_Pod_2_ZN_1_FLR_1 Sys-3 Flr-1 Sch-D HPlcmt-south ZN NECB System 3 PSZ Occ Sch Thursday, !- Name\n   ** Warning ** IP: IDF line~2222 Alpha Argument length exceeds maximum, will be truncated=  Sp-Corner_Class_1_Pod_2_ZN_1_FLR_1 Sys-3 Flr-1 Sch-D HPlcmt-south ZN NECB System 3 PSZ Occ Sch Thursda\n   **   ~~~   ** Will be processed as Alpha=SP-CORNER_CLASS_1_POD_2_ZN_1_FLR_1 SYS-3 FLR-1 SCH-D HPLCMT-SOUTH ZN NECB SYSTEM 3 PSZ OCC SCH THURSDAY\n   ************* IDF Context for following error/warning message:\n   ************* Note -- lines truncated at 300 characters, if necessary...\n   *************   2236 Schedule:Day:Interval,\n   ************* indicated Name=Sp-Corner_Class_1_Pod_2_ZN_1_FLR_1 Sys-3 Flr-1 Sch-D HPlcmt-south ZN NECB System 3 PSZ Occ Sch Friday\n   ************* Only last 1 lines before error line shown.....\n   *************   2237   Sp-Corner_Class_1_Pod_2_ZN_1_FLR_1 Sys-3 Flr-1 Sch-D HPlcmt-south ZN NECB System 3 PSZ Occ Sch Friday, !- Name\n   ** Warning ** IP: IDF line~2237 Alpha Argument length exceeds maximum, will be truncated=  Sp-Corner_Class_1_Pod_2_ZN_1_FLR_1 Sys-3 Flr-1 Sch-D HPlcmt-south ZN NECB System 3 PSZ Occ Sch Frida\n   **   ~~~   ** Will be processed as Alpha=SP-CORNER_CLASS_1_POD_2_ZN_1_FLR_1 SYS-3 FLR-1 SCH-D HPLCMT-SOUTH ZN NECB SYSTEM 3 PSZ OCC SCH FRIDAY\n   ************* IDF Context for following error/warning message:\n   ************* Note -- lines truncated at 300 characters, if necessary...\n   *************   2251 Schedule:Day:Interval,\n   ************* indicated Name=Sp-Corner_Class_1_Pod_2_ZN_1_FLR_1 Sys-3 Flr-1 Sch-D HPlcmt-south ZN NECB System 3 PSZ Occ Sch Saturday\n   ************* Only last 1 lines before error line shown.....\n   *************   2252   Sp-Corner_Class_1_Pod_2_ZN_1_FLR_1 Sys-3 Flr-1 Sch-D HPlcmt-south ZN NECB System 3 PSZ Occ Sch Saturday, !- Name\n   ** Warning ** IP: IDF line~2252 Alpha Argument length exceeds maximum, will be truncated=  Sp-Corner_Class_1_Pod_2_ZN_1_FLR_1 Sys-3 Flr-1 Sch-D HPlcmt-south ZN NECB System 3 PSZ Occ Sch Saturda\n   **   ~~~   ** Will be processed as Alpha=SP-CORNER_CLASS_1_POD_2_ZN_1_FLR_1 SYS-3 FLR-1 SCH-D HPLCMT-SOUTH ZN NECB SYSTEM 3 PSZ OCC SCH SATURDAY\n   ************* IDF Context for following error/warning message:\n   ************* Note -- lines truncated at 300 characters, if necessary...\n   *************   2258 Schedule:Week:Daily,\n   ************* indicated Name=Schedule:Week:Daily {08418655-e293-4ecf-84a6-f0f5de70302f}\n   ************* Only last 2 lines before error line shown.....\n   *************   2259   Schedule:Week:Daily {08418655-e293-4ecf-84a6-f0f5de70302f}, !- Name\n   *************   2260   Sp-Corner_Class_1_Pod_2_ZN_1_FLR_1 Sys-3 Flr-1 Sch-D HPlcmt-south ZN NECB System 3 PSZ Occ Sch Sunday, !- Sunday Schedule:Day Name\n   ** Warning ** IP: IDF line~2260 Alpha Argument length exceeds maximum, will be truncated=  Sp-Corner_Class_1_Pod_2_ZN_1_FLR_1 Sys-3 Flr-1 Sch-D HPlcmt-south ZN NECB System 3 PSZ Occ Sch Sunda\n   **   ~~~   ** Will be processed as Alpha=SP-CORNER_CLASS_1_POD_2_ZN_1_FLR_1 SYS-3 FLR-1 SCH-D HPLCMT-SOUTH ZN NECB SYSTEM 3 PSZ OCC SCH SUNDAY\n   ************* IDF Context for following error/warning message:\n   ************* Note -- lines truncated at 300 characters, if necessary...\n   *************   2258 Schedule:Week:Daily,\n   ************* indicated Name=Schedule:Week:Daily {08418655-e293-4ecf-84a6-f0f5de70302f}\n   ************* Only last 3 lines before error line shown.....\n   *************   2259   Schedule:Week:Daily {08418655-e293-4ecf-84a6-f0f5de70302f}, !- Name\n   *************   2260   Sp-Corner_Class_1_Pod_2_ZN_1_FLR_1 Sys-3 Flr-1 Sch-D HPlcmt-south ZN NECB System 3 PSZ Occ Sch Sunday, !- Sunday Schedule:Day Name\n   *************   2261   Sp-Corner_Class_1_Pod_2_ZN_1_FLR_1 Sys-3 Flr-1 Sch-D HPlcmt-south ZN NECB System 3 PSZ Occ Sch Monday, !- Monday Schedule:Day Name\n   ** Warning ** IP: IDF line~2261 Alpha Argument length exceeds maximum, will be truncated=  Sp-Corner_Class_1_Pod_2_ZN_1_FLR_1 Sys-3 Flr-1 Sch-D HPlcmt-south ZN NECB System 3 PSZ Occ Sch Monda\n   **   ~~~   ** Will be processed as Alpha=SP-CORNER_CLASS_1_POD_2_ZN_1_FLR_1 SYS-3 FLR-1 SCH-D HPLCMT-SOUTH ZN NECB SYSTEM 3 PSZ OCC SCH MONDAY\n   ************* IDF Context for following error/warning message:\n   ************* Note -- lines truncated at 300 characters, if necessary...\n   *************   2258 Schedule:Week:Daily,\n   ************* indicated Name=Schedule:Week:Daily {08418655-e293-4ecf-84a6-f0f5de70302f}\n   ************* Only last 4 lines before error line shown.....\n   *************   2259   Schedule:Week:Daily {08418655-e293-4ecf-84a6-f0f5de70302f}, !- Name\n   *************   2260   Sp-Corner_Class_1_Pod_2_ZN_1_FLR_1 Sys-3 Flr-1 Sch-D HPlcmt-south ZN NECB System 3 PSZ Occ Sch Sunday, !- Sunday Schedule:Day Name\n   *************   2261   Sp-Corner_Class_1_Pod_2_ZN_1_FLR_1 Sys-3 Flr-1 Sch-D HPlcmt-south ZN NECB System 3 PSZ Occ Sch Monday, !- Monday Schedule:Day Name\n   *************   2262   Sp-Corner_Class_1_Pod_2_ZN_1_FLR_1 Sys-3 Flr-1 Sch-D HPlcmt-south ZN NECB System 3 PSZ Occ Sch Tuesday, !- Tuesday Schedule:Day Name\n   ** Warning ** IP: IDF line~2262 Alpha Argument length exceeds maximum, will be truncated=  Sp-Corner_Class_1_Pod_2_ZN_1_FLR_1 Sys-3 Flr-1 Sch-D HPlcmt-south ZN NECB System 3 PSZ Occ Sch Tuesda\n   **   ~~~   ** Will be processed as Alpha=SP-CORNER_CLASS_1_POD_2_ZN_1_FLR_1 SYS-3 FLR-1 SCH-D HPLCMT-SOUTH ZN NECB SYSTEM 3 PSZ OCC SCH TUESDAY\n   ************* IDF Context for following error/warning message:\n   ************* Note -- lines truncated at 300 characters, if necessary...\n   *************   2258 Schedule:Week:Daily,\n   ************* indicated Name=Schedule:Week:Daily {08418655-e293-4ecf-84a6-f0f5de70302f}\n   ************* Only last 5 lines before error line shown.....\n   *************   2259   Schedule:Week:Daily {08418655-e293-4ecf-84a6-f0f5de70302f}, !- Name\n   *************   2260   Sp-Corner_Class_1_Pod_2_ZN_1_FLR_1 Sys-3 Flr-1 Sch-D HPlcmt-south ZN NECB System 3 PSZ Occ Sch Sunday, !- Sunday Schedule:Day Name\n   *************   2261   Sp-Corner_Class_1_Pod_2_ZN_1_FLR_1 Sys-3 Flr-1 Sch-D HPlcmt-south ZN NECB System 3 PSZ Occ Sch Monday, !- Monday Schedule:Day Name\n   *************   2262   Sp-Corner_Class_1_Pod_2_ZN_1_FLR_1 Sys-3 Flr-1 Sch-D HPlcmt-south ZN NECB System 3 PSZ Occ Sch Tuesday, !- Tuesday Schedule:Day Name\n   *************   2263   Sp-Corner_Class_1_Pod_2_ZN_1_FLR_1 Sys-3 Flr-1 Sch-D HPlcmt-south ZN NECB System 3 PSZ Occ Sch Wednesday, !- Wednesday Schedule:Day Name\n   ** Warning ** IP: IDF line~2263 Alpha Argument length exceeds maximum, will be truncated=  Sp-Corner_Class_1_Pod_2_ZN_1_FLR_1 Sys-3 Flr-1 Sch-D HPlcmt-south ZN NECB System 3 PSZ Occ Sch Wednesda\n   **   ~~~   ** Will be processed as Alpha=SP-CORNER_CLASS_1_POD_2_ZN_1_FLR_1 SYS-3 FLR-1 SCH-D HPLCMT-SOUTH ZN NECB SYSTEM 3 PSZ OCC SCH WEDNESDAY\n   ************* IDF Context for following error/warning message:\n   ************* Note -- lines truncated at 300 characters, if necessary...\n   *************   2258 Schedule:Week:Daily,\n   ************* indicated Name=Schedule:Week:Daily {08418655-e293-4ecf-84a6-f0f5de70302f}\n   ************* Only last 6 lines before error line shown.....\n   *************   2259   Schedule:Week:Daily {08418655-e293-4ecf-84a6-f0f5de70302f}, !- Name\n   *************   2260   Sp-Corner_Class_1_Pod_2_ZN_1_FLR_1 Sys-3 Flr-1 Sch-D HPlcmt-south ZN NECB System 3 PSZ Occ Sch Sunday, !- Sunday Schedule:Day Name\n   *************   2261   Sp-Corner_Class_1_Pod_2_ZN_1_FLR_1 Sys-3 Flr-1 Sch-D HPlcmt-south ZN NECB System 3 PSZ Occ Sch Monday, !- Monday Schedule:Day Name\n   *************   2262   Sp-Corner_Class_1_Pod_2_ZN_1_FLR_1 Sys-3 Flr-1 Sch-D HPlcmt-south ZN NECB System 3 PSZ Occ Sch Tuesday, !- Tuesday Schedule:Day Name\n   *************   2263   Sp-Corner_Class_1_Pod_2_ZN_1_FLR_1 Sys-3 Flr-1 Sch-D HPlcmt-south ZN NECB System 3 PSZ Occ Sch Wednesday, !- Wednesday Schedule:Day Name\n   *************   2264   Sp-Corner_Class_1_Pod_2_ZN_1_FLR_1 Sys-3 Flr-1 Sch-D HPlcmt-south ZN NECB System 3 PSZ Occ Sch Thursday, !- Thursday Schedule:Day Name\n   ** Warning ** IP: IDF line~2264 Alpha Argument length exceeds maximum, will be truncated=  Sp-Corner_Class_1_Pod_2_ZN_1_FLR_1 Sys-3 Flr-1 Sch-D HPlcmt-south ZN NECB System 3 PSZ Occ Sch Thursda\n   **   ~~~   ** Will be processed as Alpha=SP-CORNER_CLASS_1_POD_2_ZN_1_FLR_1 SYS-3 FLR-1 SCH-D HPLCMT-SOUTH ZN NECB SYSTEM 3 PSZ OCC SCH THURSDAY\n   ************* IDF Context for following error/warning message:\n   ************* Note -- lines truncated at 300 characters, if necessary...\n   *************   2258 Schedule:Week:Daily,\n   ************* indicated Name=Schedule:Week:Daily {08418655-e293-4ecf-84a6-f0f5de70302f}\n   ************* Only last 7 lines before error line shown.....\n   *************   2259   Schedule:Week:Daily {08418655-e293-4ecf-84a6-f0f5de70302f}, !- Name\n   *************   2260   Sp-Corner_Class_1_Pod_2_ZN_1_FLR_1 Sys-3 Flr-1 Sch-D HPlcmt-south ZN NECB System 3 PSZ Occ Sch Sunday, !- Sunday Schedule:Day Name\n   *************   2261   Sp-Corner_Class_1_Pod_2_ZN_1_FLR_1 Sys-3 Flr-1 Sch-D HPlcmt-south ZN NECB System 3 PSZ Occ Sch Monday, !- Monday Schedule:Day Name\n   *************   2262   Sp-Corner_Class_1_Pod_2_ZN_1_FLR_1 Sys-3 Flr-1 Sch-D HPlcmt-south ZN NECB System 3 PSZ Occ Sch Tuesday, !- Tuesday Schedule:Day Name\n   *************   2263   Sp-Corner_Class_1_Pod_2_ZN_1_FLR_1 Sys-3 Flr-1 Sch-D HPlcmt-south ZN NECB System 3 PSZ Occ Sch Wednesday, !- Wednesday Schedule:Day Name\n   *************   2264   Sp-Corner_Class_1_Pod_2_ZN_1_FLR_1 Sys-3 Flr-1 Sch-D HPlcmt-south ZN NECB System 3 PSZ Occ Sch Thursday, !- Thursday Schedule:Day Name\n   *************   2265   Sp-Corner_Class_1_Pod_2_ZN_1_FLR_1 Sys-3 Flr-1 Sch-D HPlcmt-south ZN NECB System 3 PSZ Occ Sch Friday, !- Friday Schedule:Day Name\n   ** Warning ** IP: IDF line~2265 Alpha Argument length exceeds maximum, will be truncated=  Sp-Corner_Class_1_Pod_2_ZN_1_FLR_1 Sys-3 Flr-1 Sch-D HPlcmt-south ZN NECB System 3 PSZ Occ Sch Frida\n   **   ~~~   ** Will be processed as Alpha=SP-CORNER_CLASS_1_POD_2_ZN_1_FLR_1 SYS-3 FLR-1 SCH-D HPLCMT-SOUTH ZN NECB SYSTEM 3 PSZ OCC SCH FRIDAY\n   ************* IDF Context for following error/warning message:\n   ************* Note -- lines truncated at 300 characters, if necessary...\n   *************   2258 Schedule:Week:Daily,\n   ************* indicated Name=Schedule:Week:Daily {08418655-e293-4ecf-84a6-f0f5de70302f}\n   ************* Only last 8 lines before error line shown.....\n   *************   2259   Schedule:Week:Daily {08418655-e293-4ecf-84a6-f0f5de70302f}, !- Name\n   *************   2260   Sp-Corner_Class_1_Pod_2_ZN_1_FLR_1 Sys-3 Flr-1 Sch-D HPlcmt-south ZN NECB System 3 PSZ Occ Sch Sunday, !- Sunday Schedule:Day Name\n   *************   2261   Sp-Corner_Class_1_Pod_2_ZN_1_FLR_1 Sys-3 Flr-1 Sch-D HPlcmt-south ZN NECB System 3 PSZ Occ Sch Monday, !- Monday Schedule:Day Name\n   *************   2262   Sp-Corner_Class_1_Pod_2_ZN_1_FLR_1 Sys-3 Flr-1 Sch-D HPlcmt-south ZN NECB System 3 PSZ Occ Sch Tuesday, !- Tuesday Schedule:Day Name\n   *************   2263   Sp-Corner_Class_1_Pod_2_ZN_1_FLR_1 Sys-3 Flr-1 Sch-D HPlcmt-south ZN NECB System 3 PSZ Occ Sch Wednesday, !- Wednesday Schedule:Day Name\n   *************   2264   Sp-Corner_Class_1_Pod_2_ZN_1_FLR_1 Sys-3 Flr-1 Sch-D HPlcmt-south ZN NECB System 3 PSZ Occ Sch Thursday, !- Thursday Schedule:Day Name\n   *************   2265   Sp-Corner_Class_1_Pod_2_ZN_1_FLR_1 Sys-3 Flr-1 Sch-D HPlcmt-south ZN NECB System 3 PSZ Occ Sch Friday, !- Friday Schedule:Day Name\n   *************   2266   Sp-Corner_Class_1_Pod_2_ZN_1_FLR_1 Sys-3 Flr-1 Sch-D HPlcmt-south ZN NECB System 3 PSZ Occ Sch Saturday, !- Saturday Schedule:Day Name\n   ** Warning ** IP: IDF line~2266 Alpha Argument length exceeds maximum, will be truncated=  Sp-Corner_Class_1_Pod_2_ZN_1_FLR_1 Sys-3 Flr-1 Sch-D HPlcmt-south ZN NECB System 3 PSZ Occ Sch Saturda\n   **   ~~~   ** Will be processed as Alpha=SP-CORNER_CLASS_1_POD_2_ZN_1_FLR_1 SYS-3 FLR-1 SCH-D HPLCMT-SOUTH ZN NECB SYSTEM 3 PSZ OCC SCH SATURDAY\n   ************* IDF Context for following error/warning message:\n   ************* Note -- lines truncated at 300 characters, if necessary...\n   *************   2258 Schedule:Week:Daily,\n   ************* indicated Name=Schedule:Week:Daily {08418655-e293-4ecf-84a6-f0f5de70302f}\n   ************* Only last 9 lines before error line shown.....\n   *************   2259   Schedule:Week:Daily {08418655-e293-4ecf-84a6-f0f5de70302f}, !- Name\n   *************   2260   Sp-Corner_Class_1_Pod_2_ZN_1_FLR_1 Sys-3 Flr-1 Sch-D HPlcmt-south ZN NECB System 3 PSZ Occ Sch Sunday, !- Sunday Schedule:Day Name\n   *************   2261   Sp-Corner_Class_1_Pod_2_ZN_1_FLR_1 Sys-3 Flr-1 Sch-D HPlcmt-south ZN NECB System 3 PSZ Occ Sch Monday, !- Monday Schedule:Day Name\n   *************   2262   Sp-Corner_Class_1_Pod_2_ZN_1_FLR_1 Sys-3 Flr-1 Sch-D HPlcmt-south ZN NECB System 3 PSZ Occ Sch Tuesday, !- Tuesday Schedule:Day Name\n   *************   2263   Sp-Corner_Class_1_Pod_2_ZN_1_FLR_1 Sys-3 Flr-1 Sch-D HPlcmt-south ZN NECB System 3 PSZ Occ Sch Wednesday, !- Wednesday Schedule:Day Name\n   *************   2264   Sp-Corner_Class_1_Pod_2_ZN_1_FLR_1 Sys-3 Flr-1 Sch-D HPlcmt-south ZN NECB System 3 PSZ Occ Sch Thursday, !- Thursday Schedule:Day Name\n   *************   2265   Sp-Corner_Class_1_Pod_2_ZN_1_FLR_1 Sys-3 Flr-1 Sch-D HPlcmt-south ZN NECB System 3 PSZ Occ Sch Friday, !- Friday Schedule:Day Name\n   *************   2266   Sp-Corner_Class_1_Pod_2_ZN_1_FLR_1 Sys-3 Flr-1 Sch-D HPlcmt-south ZN NECB System 3 PSZ Occ Sch Saturday, !- Saturday Schedule:Day Name\n   *************   2267   Sp-Corner_Class_1_Pod_2_ZN_1_FLR_1 Sys-3 Flr-1 Sch-D HPlcmt-south ZN NECB System 3 PSZ Occ Sch Default, !- Holiday Schedule:Day Name\n   ** Warning ** IP: IDF line~2267 Alpha Argument length exceeds maximum, will be truncated=  Sp-Corner_Class_1_Pod_2_ZN_1_FLR_1 Sys-3 Flr-1 Sch-D HPlcmt-south ZN NECB System 3 PSZ Occ Sch Defaul\n   **   ~~~   ** Will be processed as Alpha=SP-CORNER_CLASS_1_POD_2_ZN_1_FLR_1 SYS-3 FLR-1 SCH-D HPLCMT-SOUTH ZN NECB SYSTEM 3 PSZ OCC SCH DEFAULT\n   ************* IDF Context for following error/warning message:\n   ************* Note -- lines truncated at 300 characters, if necessary...\n   *************   2258 Schedule:Week:Daily,\n   ************* indicated Name=Schedule:Week:Daily {08418655-e293-4ecf-84a6-f0f5de70302f}\n   ************* Only last 10 lines before error line shown.....\n   *************   2259   Schedule:Week:Daily {08418655-e293-4ecf-84a6-f0f5de70302f}, !- Name\n   *************   2260   Sp-Corner_Class_1_Pod_2_ZN_1_FLR_1 Sys-3 Flr-1 Sch-D HPlcmt-south ZN NECB System 3 PSZ Occ Sch Sunday, !- Sunday Schedule:Day Name\n   *************   2261   Sp-Corner_Class_1_Pod_2_ZN_1_FLR_1 Sys-3 Flr-1 Sch-D HPlcmt-south ZN NECB System 3 PSZ Occ Sch Monday, !- Monday Schedule:Day Name\n   *************   2262   Sp-Corner_Class_1_Pod_2_ZN_1_FLR_1 Sys-3 Flr-1 Sch-D HPlcmt-south ZN NECB System 3 PSZ Occ Sch Tuesday, !- Tuesday Schedule:Day Name\n   *************   2263   Sp-Corner_Class_1_Pod_2_ZN_1_FLR_1 Sys-3 Flr-1 Sch-D HPlcmt-south ZN NECB System 3 PSZ Occ Sch Wednesday, !- Wednesday Schedule:Day Name\n   *************   2264   Sp-Corner_Class_1_Pod_2_ZN_1_FLR_1 Sys-3 Flr-1 Sch-D HPlcmt-south ZN NECB System 3 PSZ Occ Sch Thursday, !- Thursday Schedule:Day Name\n   *************   2265   Sp-Corner_Class_1_Pod_2_ZN_1_FLR_1 Sys-3 Flr-1 Sch-D HPlcmt-south ZN NECB System 3 PSZ Occ Sch Friday, !- Friday Schedule:Day Name\n   *************   2266   Sp-Corner_Class_1_Pod_2_ZN_1_FLR_1 Sys-3 Flr-1 Sch-D HPlcmt-south ZN NECB System 3 PSZ Occ Sch Saturday, !- Saturday Schedule:Day Name\n   *************   2267   Sp-Corner_Class_1_Pod_2_ZN_1_FLR_1 Sys-3 Flr-1 Sch-D HPlcmt-south ZN NECB System 3 PSZ Occ Sch Default, !- Holiday Schedule:Day Name\n   *************   2268   Sp-Corner_Class_1_Pod_2_ZN_1_FLR_1 Sys-3 Flr-1 Sch-D HPlcmt-south ZN NECB System 3 PSZ Occ Sch Summer Design Day, !- SummerDesignDay Schedule:Day Name\n   ** Warning ** IP: IDF line~2268 Alpha Argument length exceeds maximum, will be truncated=  Sp-Corner_Class_1_Pod_2_ZN_1_FLR_1 Sys-3 Flr-1 Sch-D HPlcmt-south ZN NECB System 3 PSZ Occ Sch Summer Design Da\n   **   ~~~   ** Will be processed as Alpha=SP-CORNER_CLASS_1_POD_2_ZN_1_FLR_1 SYS-3 FLR-1 SCH-D HPLCMT-SOUTH ZN NECB SYSTEM 3 PSZ OCC SCH SUMMER DESIGN DAY\n   ************* IDF Context for following error/warning message:\n   ************* Note -- lines truncated at 300 characters, if necessary...\n   *************   2258 Schedule:Week:Daily,\n   ************* indicated Name=Schedule:Week:Daily {08418655-e293-4ecf-84a6-f0f5de70302f}\n   ************* Only last 10 lines before error line shown.....\n   *************   2260   Sp-Corner_Class_1_Pod_2_ZN_1_FLR_1 Sys-3 Flr-1 Sch-D HPlcmt-south ZN NECB System 3 PSZ Occ Sch Sunday, !- Sunday Schedule:Day Name\n   *************   2261   Sp-Corner_Class_1_Pod_2_ZN_1_FLR_1 Sys-3 Flr-1 Sch-D HPlcmt-south ZN NECB System 3 PSZ Occ Sch Monday, !- Monday Schedule:Day Name\n   *************   2262   Sp-Corner_Class_1_Pod_2_ZN_1_FLR_1 Sys-3 Flr-1 Sch-D HPlcmt-south ZN NECB System 3 PSZ Occ Sch Tuesday, !- Tuesday Schedule:Day Name\n   *************   2263   Sp-Corner_Class_1_Pod_2_ZN_1_FLR_1 Sys-3 Flr-1 Sch-D HPlcmt-south ZN NECB System 3 PSZ Occ Sch Wednesday, !- Wednesday Schedule:Day Name\n   *************   2264   Sp-Corner_Class_1_Pod_2_ZN_1_FLR_1 Sys-3 Flr-1 Sch-D HPlcmt-south ZN NECB System 3 PSZ Occ Sch Thursday, !- Thursday Schedule:Day Name\n   *************   2265   Sp-Corner_Class_1_Pod_2_ZN_1_FLR_1 Sys-3 Flr-1 Sch-D HPlcmt-south ZN NECB System 3 PSZ Occ Sch Friday, !- Friday Schedule:Day Name\n   *************   2266   Sp-Corner_Class_1_Pod_2_ZN_1_FLR_1 Sys-3 Flr-1 Sch-D HPlcmt-south ZN NECB System 3 PSZ Occ Sch Saturday, !- Saturday Schedule:Day Name\n   *************   2267   Sp-Corner_Class_1_Pod_2_ZN_1_FLR_1 Sys-3 Flr-1 Sch-D HPlcmt-south ZN NECB System 3 PSZ Occ Sch Default, !- Holiday Schedule:Day Name\n   *************   2268   Sp-Corner_Class_1_Pod_2_ZN_1_FLR_1 Sys-3 Flr-1 Sch-D HPlcmt-south ZN NECB System 3 PSZ Occ Sch Summer Design Day, !- SummerDesignDay Schedule:Day Name\n   *************   2269   Sp-Corner_Class_1_Pod_2_ZN_1_FLR_1 Sys-3 Flr-1 Sch-D HPlcmt-south ZN NECB System 3 PSZ Occ Sch Winter Design Day, !- WinterDesignDay Schedule:Day Name\n   ** Warning ** IP: IDF line~2269 Alpha Argument length exceeds maximum, will be truncated=  Sp-Corner_Class_1_Pod_2_ZN_1_FLR_1 Sys-3 Flr-1 Sch-D HPlcmt-south ZN NECB System 3 PSZ Occ Sch Winter Design Da\n   **   ~~~   ** Will be processed as Alpha=SP-CORNER_CLASS_1_POD_2_ZN_1_FLR_1 SYS-3 FLR-1 SCH-D HPLCMT-SOUTH ZN NECB SYSTEM 3 PSZ OCC SCH WINTER DESIGN DAY\n   ************* IDF Context for following error/warning message:\n   ************* Note -- lines truncated at 300 characters, if necessary...\n   *************   2258 Schedule:Week:Daily,\n   ************* indicated Name=Schedule:Week:Daily {08418655-e293-4ecf-84a6-f0f5de70302f}\n   ************* Only last 10 lines before error line shown.....\n   *************   2261   Sp-Corner_Class_1_Pod_2_ZN_1_FLR_1 Sys-3 Flr-1 Sch-D HPlcmt-south ZN NECB System 3 PSZ Occ Sch Monday, !- Monday Schedule:Day Name\n   *************   2262   Sp-Corner_Class_1_Pod_2_ZN_1_FLR_1 Sys-3 Flr-1 Sch-D HPlcmt-south ZN NECB System 3 PSZ Occ Sch Tuesday, !- Tuesday Schedule:Day Name\n   *************   2263   Sp-Corner_Class_1_Pod_2_ZN_1_FLR_1 Sys-3 Flr-1 Sch-D HPlcmt-south ZN NECB System 3 PSZ Occ Sch Wednesday, !- Wednesday Schedule:Day Name\n   *************   2264   Sp-Corner_Class_1_Pod_2_ZN_1_FLR_1 Sys-3 Flr-1 Sch-D HPlcmt-south ZN NECB System 3 PSZ Occ Sch Thursday, !- Thursday Schedule:Day Name\n   *************   2265   Sp-Corner_Class_1_Pod_2_ZN_1_FLR_1 Sys-3 Flr-1 Sch-D HPlcmt-south ZN NECB System 3 PSZ Occ Sch Friday, !- Friday Schedule:Day Name\n   *************   2266   Sp-Corner_Class_1_Pod_2_ZN_1_FLR_1 Sys-3 Flr-1 Sch-D HPlcmt-south ZN NECB System 3 PSZ Occ Sch Saturday, !- Saturday Schedule:Day Name\n   *************   2267   Sp-Corner_Class_1_Pod_2_ZN_1_FLR_1 Sys-3 Flr-1 Sch-D HPlcmt-south ZN NECB System 3 PSZ Occ Sch Default, !- Holiday Schedule:Day Name\n   *************   2268   Sp-Corner_Class_1_Pod_2_ZN_1_FLR_1 Sys-3 Flr-1 Sch-D HPlcmt-south ZN NECB System 3 PSZ Occ Sch Summer Design Day, !- SummerDesignDay Schedule:Day Name\n   *************   2269   Sp-Corner_Class_1_Pod_2_ZN_1_FLR_1 Sys-3 Flr-1 Sch-D HPlcmt-south ZN NECB System 3 PSZ Occ Sch Winter Design Day, !- WinterDesignDay Schedule:Day Name\n   *************   2270   Sp-Corner_Class_1_Pod_2_ZN_1_FLR_1 Sys-3 Flr-1 Sch-D HPlcmt-south ZN NECB System 3 PSZ Occ Sch Default, !- CustomDay1 Schedule:Day Name\n   ** Warning ** IP: IDF line~2270 Alpha Argument length exceeds maximum, will be truncated=  Sp-Corner_Class_1_Pod_2_ZN_1_FLR_1 Sys-3 Flr-1 Sch-D HPlcmt-south ZN NECB System 3 PSZ Occ Sch Defaul\n   **   ~~~   ** Will be processed as Alpha=SP-CORNER_CLASS_1_POD_2_ZN_1_FLR_1 SYS-3 FLR-1 SCH-D HPLCMT-SOUTH ZN NECB SYSTEM 3 PSZ OCC SCH DEFAULT\n   ************* IDF Context for following error/warning message:\n   ************* Note -- lines truncated at 300 characters, if necessary...\n   *************   2258 Schedule:Week:Daily,\n   ************* indicated Name=Schedule:Week:Daily {08418655-e293-4ecf-84a6-f0f5de70302f}\n   ************* Only last 10 lines before error line shown.....\n   *************   2262   Sp-Corner_Class_1_Pod_2_ZN_1_FLR_1 Sys-3 Flr-1 Sch-D HPlcmt-south ZN NECB System 3 PSZ Occ Sch Tuesday, !- Tuesday Schedule:Day Name\n   *************   2263   Sp-Corner_Class_1_Pod_2_ZN_1_FLR_1 Sys-3 Flr-1 Sch-D HPlcmt-south ZN NECB System 3 PSZ Occ Sch Wednesday, !- Wednesday Schedule:Day Name\n   *************   2264   Sp-Corner_Class_1_Pod_2_ZN_1_FLR_1 Sys-3 Flr-1 Sch-D HPlcmt-south ZN NECB System 3 PSZ Occ Sch Thursday, !- Thursday Schedule:Day Name\n   *************   2265   Sp-Corner_Class_1_Pod_2_ZN_1_FLR_1 Sys-3 Flr-1 Sch-D HPlcmt-south ZN NECB System 3 PSZ Occ Sch Friday, !- Friday Schedule:Day Name\n   *************   2266   Sp-Corner_Class_1_Pod_2_ZN_1_FLR_1 Sys-3 Flr-1 Sch-D HPlcmt-south ZN NECB System 3 PSZ Occ Sch Saturday, !- Saturday Schedule:Day Name\n   *************   2267   Sp-Corner_Class_1_Pod_2_ZN_1_FLR_1 Sys-3 Flr-1 Sch-D HPlcmt-south ZN NECB System 3 PSZ Occ Sch Default, !- Holiday Schedule:Day Name\n   *************   2268   Sp-Corner_Class_1_Pod_2_ZN_1_FLR_1 Sys-3 Flr-1 Sch-D HPlcmt-south ZN NECB System 3 PSZ Occ Sch Summer Design Day, !- SummerDesignDay Schedule:Day Name\n   *************   2269   Sp-Corner_Class_1_Pod_2_ZN_1_FLR_1 Sys-3 Flr-1 Sch-D HPlcmt-south ZN NECB System 3 PSZ Occ Sch Winter Design Day, !- WinterDesignDay Schedule:Day Name\n   *************   2270   Sp-Corner_Class_1_Pod_2_ZN_1_FLR_1 Sys-3 Flr-1 Sch-D HPlcmt-south ZN NECB System 3 PSZ Occ Sch Default, !- CustomDay1 Schedule:Day Name\n   *************   2271   Sp-Corner_Class_1_Pod_2_ZN_1_FLR_1 Sys-3 Flr-1 Sch-D HPlcmt-south ZN NECB System 3 PSZ Occ Sch Default; !- CustomDay2 Schedule:Day Name\n   ** Warning ** IP: IDF line~2271 Alpha Argument length exceeds maximum, will be truncated=  Sp-Corner_Class_1_Pod_2_ZN_1_FLR_1 Sys-3 Flr-1 Sch-D HPlcmt-south ZN NECB System 3 PSZ Occ Sch Defaul\n   **   ~~~   ** Will be processed as Alpha=SP-CORNER_CLASS_1_POD_2_ZN_1_FLR_1 SYS-3 FLR-1 SCH-D HPLCMT-SOUTH ZN NECB SYSTEM 3 PSZ OCC SCH DEFAULT\n   ************* IDF Context for following error/warning message:\n   ************* Note -- lines truncated at 300 characters, if necessary...\n   *************   2282 Schedule:Day:Interval,\n   ************* indicated Name=Sp-Corner_Class_1_Pod_2_ZN_1_FLR_1 Sys-3 Flr-1 Sch-D HPlcmt-south ZN NECB System 3 PSZ Occ Sch Default\n   ************* Only last 1 lines before error line shown.....\n   *************   2283   Sp-Corner_Class_1_Pod_2_ZN_1_FLR_1 Sys-3 Flr-1 Sch-D HPlcmt-south ZN NECB System 3 PSZ Occ Sch Default, !- Name\n   ** Warning ** IP: IDF line~2283 Alpha Argument length exceeds maximum, will be truncated=  Sp-Corner_Class_1_Pod_2_ZN_1_FLR_1 Sys-3 Flr-1 Sch-D HPlcmt-south ZN NECB System 3 PSZ Occ Sch Defaul\n   **   ~~~   ** Will be processed as Alpha=SP-CORNER_CLASS_1_POD_2_ZN_1_FLR_1 SYS-3 FLR-1 SCH-D HPLCMT-SOUTH ZN NECB SYSTEM 3 PSZ OCC SCH DEFAULT\n   ************* IDF Context for following error/warning message:\n   ************* Note -- lines truncated at 300 characters, if necessary...\n   *************   2289 Schedule:Day:Interval,\n   ************* indicated Name=Sp-Corner_Class_1_Pod_2_ZN_1_FLR_1 Sys-3 Flr-1 Sch-D HPlcmt-south ZN NECB System 3 PSZ Occ Sch Summer Design Day\n   ************* Only last 1 lines before error line shown.....\n   *************   2290   Sp-Corner_Class_1_Pod_2_ZN_1_FLR_1 Sys-3 Flr-1 Sch-D HPlcmt-south ZN NECB System 3 PSZ Occ Sch Summer Design Day, !- Name\n   ** Warning ** IP: IDF line~2290 Alpha Argument length exceeds maximum, will be truncated=  Sp-Corner_Class_1_Pod_2_ZN_1_FLR_1 Sys-3 Flr-1 Sch-D HPlcmt-south ZN NECB System 3 PSZ Occ Sch Summer Design Da\n   **   ~~~   ** Will be processed as Alpha=SP-CORNER_CLASS_1_POD_2_ZN_1_FLR_1 SYS-3 FLR-1 SCH-D HPLCMT-SOUTH ZN NECB SYSTEM 3 PSZ OCC SCH SUMMER DESIGN DAY\n   ************* IDF Context for following error/warning message:\n   ************* Note -- lines truncated at 300 characters, if necessary...\n   *************   2296 Schedule:Day:Interval,\n   ************* indicated Name=Sp-Corner_Class_1_Pod_2_ZN_1_FLR_1 Sys-3 Flr-1 Sch-D HPlcmt-south ZN NECB System 3 PSZ Occ Sch Winter Design Day\n   ************* Only last 1 lines before error line shown.....\n   *************   2297   Sp-Corner_Class_1_Pod_2_ZN_1_FLR_1 Sys-3 Flr-1 Sch-D HPlcmt-south ZN NECB System 3 PSZ Occ Sch Winter Design Day, !- Name\n   ** Warning ** IP: IDF line~2297 Alpha Argument length exceeds maximum, will be truncated=  Sp-Corner_Class_1_Pod_2_ZN_1_FLR_1 Sys-3 Flr-1 Sch-D HPlcmt-south ZN NECB System 3 PSZ Occ Sch Winter Design Da\n   **   ~~~   ** Will be processed as Alpha=SP-CORNER_CLASS_1_POD_2_ZN_1_FLR_1 SYS-3 FLR-1 SCH-D HPLCMT-SOUTH ZN NECB SYSTEM 3 PSZ OCC SCH WINTER DESIGN DAY\n   ************* IDF Context for following error/warning message:\n   ************* Note -- lines truncated at 300 characters, if necessary...\n   *************   2569 Schedule:Day:Interval,\n   ************* indicated Name=Sp-Corner_Class_1_Pod_3_ZN_1_FLR_1 Sys-3 Flr-1 Sch-D HPlcmt-south ZN NECB System 3 PSZ Occ Sch Sunday\n   ************* Only last 1 lines before error line shown.....\n   *************   2570   Sp-Corner_Class_1_Pod_3_ZN_1_FLR_1 Sys-3 Flr-1 Sch-D HPlcmt-south ZN NECB System 3 PSZ Occ Sch Sunday, !- Name\n   ** Warning ** IP: IDF line~2570 Alpha Argument length exceeds maximum, will be truncated=  Sp-Corner_Class_1_Pod_3_ZN_1_FLR_1 Sys-3 Flr-1 Sch-D HPlcmt-south ZN NECB System 3 PSZ Occ Sch Sunda\n   **   ~~~   ** Will be processed as Alpha=SP-CORNER_CLASS_1_POD_3_ZN_1_FLR_1 SYS-3 FLR-1 SCH-D HPLCMT-SOUTH ZN NECB SYSTEM 3 PSZ OCC SCH SUNDAY\n   ************* IDF Context for following error/warning message:\n   ************* Note -- lines truncated at 300 characters, if necessary...\n   *************   2576 Schedule:Day:Interval,\n   ************* indicated Name=Sp-Corner_Class_1_Pod_3_ZN_1_FLR_1 Sys-3 Flr-1 Sch-D HPlcmt-south ZN NECB System 3 PSZ Occ Sch Monday\n   ************* Only last 1 lines before error line shown.....\n   *************   2577   Sp-Corner_Class_1_Pod_3_ZN_1_FLR_1 Sys-3 Flr-1 Sch-D HPlcmt-south ZN NECB System 3 PSZ Occ Sch Monday, !- Name\n   ** Warning ** IP: IDF line~2577 Alpha Argument length exceeds maximum, will be truncated=  Sp-Corner_Class_1_Pod_3_ZN_1_FLR_1 Sys-3 Flr-1 Sch-D HPlcmt-south ZN NECB System 3 PSZ Occ Sch Monda\n   **   ~~~   ** Will be processed as Alpha=SP-CORNER_CLASS_1_POD_3_ZN_1_FLR_1 SYS-3 FLR-1 SCH-D HPLCMT-SOUTH ZN NECB SYSTEM 3 PSZ OCC SCH MONDAY\n   ************* IDF Context for following error/warning message:\n   ************* Note -- lines truncated at 300 characters, if necessary...\n   *************   2591 Schedule:Day:Interval,\n   ************* indicated Name=Sp-Corner_Class_1_Pod_3_ZN_1_FLR_1 Sys-3 Flr-1 Sch-D HPlcmt-south ZN NECB System 3 PSZ Occ Sch Tuesday\n   ************* Only last 1 lines before error line shown.....\n   *************   2592   Sp-Corner_Class_1_Pod_3_ZN_1_FLR_1 Sys-3 Flr-1 Sch-D HPlcmt-south ZN NECB System 3 PSZ Occ Sch Tuesday, !- Name\n   ** Warning ** IP: IDF line~2592 Alpha Argument length exceeds maximum, will be truncated=  Sp-Corner_Class_1_Pod_3_ZN_1_FLR_1 Sys-3 Flr-1 Sch-D HPlcmt-south ZN NECB System 3 PSZ Occ Sch Tuesda\n   **   ~~~   ** Will be processed as Alpha=SP-CORNER_CLASS_1_POD_3_ZN_1_FLR_1 SYS-3 FLR-1 SCH-D HPLCMT-SOUTH ZN NECB SYSTEM 3 PSZ OCC SCH TUESDAY\n   ************* IDF Context for following error/warning message:\n   ************* Note -- lines truncated at 300 characters, if necessary...\n   *************   2606 Schedule:Day:Interval,\n   ************* indicated Name=Sp-Corner_Class_1_Pod_3_ZN_1_FLR_1 Sys-3 Flr-1 Sch-D HPlcmt-south ZN NECB System 3 PSZ Occ Sch Wednesday\n   ************* Only last 1 lines before error line shown.....\n   *************   2607   Sp-Corner_Class_1_Pod_3_ZN_1_FLR_1 Sys-3 Flr-1 Sch-D HPlcmt-south ZN NECB System 3 PSZ Occ Sch Wednesday, !- Name\n   ** Warning ** IP: IDF line~2607 Alpha Argument length exceeds maximum, will be truncated=  Sp-Corner_Class_1_Pod_3_ZN_1_FLR_1 Sys-3 Flr-1 Sch-D HPlcmt-south ZN NECB System 3 PSZ Occ Sch Wednesda\n   **   ~~~   ** Will be processed as Alpha=SP-CORNER_CLASS_1_POD_3_ZN_1_FLR_1 SYS-3 FLR-1 SCH-D HPLCMT-SOUTH ZN NECB SYSTEM 3 PSZ OCC SCH WEDNESDAY\n   ************* IDF Context for following error/warning message:\n   ************* Note -- lines truncated at 300 characters, if necessary...\n   *************   2621 Schedule:Day:Interval,\n   ************* indicated Name=Sp-Corner_Class_1_Pod_3_ZN_1_FLR_1 Sys-3 Flr-1 Sch-D HPlcmt-south ZN NECB System 3 PSZ Occ Sch Thursday\n   ************* Only last 1 lines before error line shown.....\n   *************   2622   Sp-Corner_Class_1_Pod_3_ZN_1_FLR_1 Sys-3 Flr-1 Sch-D HPlcmt-south ZN NECB System 3 PSZ Occ Sch Thursday, !- Name\n   ** Warning ** IP: IDF line~2622 Alpha Argument length exceeds maximum, will be truncated=  Sp-Corner_Class_1_Pod_3_ZN_1_FLR_1 Sys-3 Flr-1 Sch-D HPlcmt-south ZN NECB System 3 PSZ Occ Sch Thursda\n   **   ~~~   ** Will be processed as Alpha=SP-CORNER_CLASS_1_POD_3_ZN_1_FLR_1 SYS-3 FLR-1 SCH-D HPLCMT-SOUTH ZN NECB SYSTEM 3 PSZ OCC SCH THURSDAY\n   ************* IDF Context for following error/warning message:\n   ************* Note -- lines truncated at 300 characters, if necessary...\n   *************   2636 Schedule:Day:Interval,\n   ************* indicated Name=Sp-Corner_Class_1_Pod_3_ZN_1_FLR_1 Sys-3 Flr-1 Sch-D HPlcmt-south ZN NECB System 3 PSZ Occ Sch Friday\n   ************* Only last 1 lines before error line shown.....\n   *************   2637   Sp-Corner_Class_1_Pod_3_ZN_1_FLR_1 Sys-3 Flr-1 Sch-D HPlcmt-south ZN NECB System 3 PSZ Occ Sch Friday, !- Name\n   ** Warning ** IP: IDF line~2637 Alpha Argument length exceeds maximum, will be truncated=  Sp-Corner_Class_1_Pod_3_ZN_1_FLR_1 Sys-3 Flr-1 Sch-D HPlcmt-south ZN NECB System 3 PSZ Occ Sch Frida\n   **   ~~~   ** Will be processed as Alpha=SP-CORNER_CLASS_1_POD_3_ZN_1_FLR_1 SYS-3 FLR-1 SCH-D HPLCMT-SOUTH ZN NECB SYSTEM 3 PSZ OCC SCH FRIDAY\n   ************* IDF Context for following error/warning message:\n   ************* Note -- lines truncated at 300 characters, if necessary...\n   *************   2651 Schedule:Day:Interval,\n   ************* indicated Name=Sp-Corner_Class_1_Pod_3_ZN_1_FLR_1 Sys-3 Flr-1 Sch-D HPlcmt-south ZN NECB System 3 PSZ Occ Sch Saturday\n   ************* Only last 1 lines before error line shown.....\n   *************   2652   Sp-Corner_Class_1_Pod_3_ZN_1_FLR_1 Sys-3 Flr-1 Sch-D HPlcmt-south ZN NECB System 3 PSZ Occ Sch Saturday, !- Name\n   ** Warning ** IP: IDF line~2652 Alpha Argument length exceeds maximum, will be truncated=  Sp-Corner_Class_1_Pod_3_ZN_1_FLR_1 Sys-3 Flr-1 Sch-D HPlcmt-south ZN NECB System 3 PSZ Occ Sch Saturda\n   **   ~~~   ** Will be processed as Alp
[...]
VfBr0zVZ8GvR9WHwa9C1afBr0fYl8GvQti3wa9N2MfBr0jY58GjXUueb2SD6NGupcc1Mln0YNK7nGVuk0St9QUs1WLV5hwiBB2yo2Cboz2CTovmCToG0VmwRtq9gkaFvFJkHbKjYJerplk9DYKj4Nerrl06CnWz4N2lbxadC2ik+DtlV8GrSt4tOgbRWfBm2r+DRqqHONreLTqKHONbaKT6OGlVxjq3QapRvBV7NVi53iGSRoW8UmQXcGmwTdF2wStK1ik6BtFZsEbavYJGhbxSZBT7dsEhpbxadBT7d8GvR0y6dB2yo+DdpW8WnQtopPg7ZVfBq0reLToG0Vn0YNda6xVXwaNdS5xlbxadSwkmtslU6jdL/darZqsSEvgwRtq9gk6M5gk6D7gk2CtlVsErStYpOgbRWbBG2r2CTo6ZZNQmOr+DTo6ZZPg55u+TRoW8WnQdsqPg3aVvFp0LaKT4O2VXwatK3i06ihzjW2ik+jhjrX2Co+jRpWco2t0mmUbmtYzVYt9j1kkKBtFZsE3RlsEnRfsEnQtopNgrZVbBK0rWKToG0VmwQ93bJJaDdb49LQ7VbFpaHbyIpLQ7fHFZeGbvsrLg3dnm9cGrrt4Lg0dDvFcWnoNpHj0qihzrVbz3Fp1FDn2g3ruDRqWMk1tmql8b3KDq/LHZ3FkYjk/WoH2WLj2EZ6N24WO8CWbhW72hY6ldn7eBb5aaPbbgrH6TZFR/3kdqttN/uQYzztdu37fS+T4ziZHz8E6WJb5afrr7D3dJ7gPPFlcjFTuxxXPlFxzF9yfJJeOkvkAkNt1Lxs9w3v+40wwggjjDDCCCOMMMIII4wwwggjjDDCCCOMMMIII4wwwggjjDDCCCOMMMIII4wwwggjjDDCCCOMMMIII4wwwggjjDDCCCOM8F8qPLfjO5kkgS8/eerBWsdu/4/Pq6pHY9OXj8ZeyiSQ6fLxWqu5eoB4GsaZHQaRLH1ENn3tOd3yJ2tTu3j1/DQOvSyIoxzKSjM5bV3LUZxIq9qTzx/lWEb+ywtafNbotZuio55cbqsHmdU/VihHmQIrSb1Kaw/GMjuNMtU+ucRoFg0L0sa2+KMkxYpQPp19VfostzqCkWhkkyC106JXqgmp49lJdt5+p95w0vgPsGm2Fb56dDxnX+YdTOM0UAlP8o+rXM3qUGleoUriezOkFVYQ+VLVQ8tpGp69Om7WPXEUyFCNt8ayTRd1Mk7i2VT64uefxd+Wnz/Yg4mXLp9/VwW2/Tw6fzWaN4jtjcdnSsMOZTTOJuKdcMU/hXUchpY4fPmNNAyGstFytq/a37dL6+1PVxInonGTX0r7F3GTyyyH6lJXffb3fMYx7yB1qGG8zHd1893+Iefi6Oho0XjrZSyyLrv9xvRSV8d1Ir0f65z8aHiO6fdVey2v7kgNazUYliOl2MjBHnhpGowj6ffVFhHpVdGS39drylVHT2fppLFuX+Rderjoz/UrKQwPq1ylrb65rkqaJfEPWU1n8d11leKpNwyyeTWp5ZfXvqpCYiW1bpbVRPJyWlmnPIwnH3WsyvnlxCNawjHNZlJu1Vkfm8WqWun7j2WeQh07O+LL71/Fv89/vxCX5xdff/v8q/h4/utvffHh9OK0WoKzfNaWD56yaCKLRRonmYhmt/k4GIpiS5NUeOkwNy9BNK6QcdX2Ks+zldlriuvqk0sis1kSiamXpPIsjL2s4akpfzvvymefXRefVWrMcov2THZ5CWWJHze708uT/yzKvSj2xpYvR94szMQ0ifM5TG41xdZP+/v9/unp1oY3ngEOcIADHOAABzjAAQ5wgAOcvyaOSGe3+X+BhS/Vh8L35oookT5oQAMa0IAGNKABDWhAAxrQgEZPc1/cmvVfNNfhTAIHOMABDnCAAxzgAAc4wAEOcNbBeXpvoKPeG3g5o94b2HGKv7AdH+/uHhyAFKQgBSlIQQpSkIIUpCAFKUhBCtK3QeoWpF5GkbYL0k7Hdfd7IAUpSEEKUpCCFKQgBSlIQQpSkIL0bZB2FOlZEhCk7kFB6jh7e50OSEEKUpCCFKQgBSlIQQpSkIIUpCB9G6S7ivTrZEaR7hekB/nRfQ9SkIIUpCAFKUhBClKQghSkIAUpSN8GaVeR/kv6FOleQXpy0u/v7YEUpCAFKUhBClKQghSkIAUpSEEK0rdB2it+MzGTFGmvIO33ez2QghSkIAUpSEEKUpCCFKQgBSlIQfpWSPcU6aeY2lnQ7Rak+/uu2+2CFKQgBSlIQQpSkIIUpCAFKUhBCtLaSFcofuLdN0qTPdhZkIXycuJNpZ3Jh6yx9SGeJWk5xvzPZ54EtzJKgzgKZVpkKEmxsyOOfV94osgk7oNsItL4Vgq/U3Jmeje2velURn7DUtrWdskJq8P2sixpWA9WU/TahifN85Pc6iel2TyUC7yWFw0ncZKfb4VyZEC7zDGKo6x1L4PxJFM5ruPQr55j0TeX09anWZgN+mE+RgfO4EvsDzqDb5/zH88+XgwccTlPWx1xFiat/OfhpHUiPnwJh7dZK41neb98+yw+n/bfq69l8lZ0xJfLb+J8OFTf3drW9fS7nXSYBNPsH+R33u34wd3rYfIcOlmeSwT+kTVUZdDPW84LIpkMHKdriaI9jyw/SKehNz8MojCPta7DePjjF4sGzLMurkFk82l+vmrSnRvvzlt8qj1THXdeooasOBJ+cDsNpR3J+8u7ccP66RXIpthtt4t/SmtQ5fW9zMsTX/1hhd61DK1Dy5cjL+9qMU3iURBKq7mIDB6sQ8duN607L5zJ5c9DNVXl5+SzT79/emo9NivlcZnydJjy7DLl6TLl6THl2WPKs8+U54Apj9PmSsQ1oh2uIe1wjWmHa1A7XKPa4RrWDte4drgGtsM1sl2uke2yzdVcI9vlGtmu0cgW6ez29sW7qyutaIn0DdKQbWSWhmwhszRk+5ilIeveLA1Z9WZpyJo3S0NWvFkast7N0tALmWEepnFML2OGeZhGMr2IGeZhGsv0EmaYh2k00wuYYR6m8UwvX4Z5uOZlpvFMr12GeaqP5/sgysyXrWv1UfU8ZPMY5iGbxzAP2TyGechyN8xDlrthHrLcDfOQ5W6Yhyx3wzz0+mWaiGtE0yuYaSKuMU2vYaaJuEY1vYqZJuIa1/Q6ZpqIa2TTK5lpIra5mmtk04uZaaLqI/vpjxmlLxumlrn2i//oLd5GzCDhbl6is3mJ3c1LdDcv0du8xN7mJfY3L3GweYkXK/umNGqob6eGAndqqHCnhhJ3aqhxp4Yid2qocqeGMndqqHO3hjp361jHa6hzt4Y6d9er89J3OlazVYuXPjJI0L3BJkF3BpsE3RdsEvSUyyZBz7hsEvSEyyZBz7dsEvR0yyahsVV8GjXUt8ZW8WnUUOEaW8WnUUONa2wVn0YNVa6xVXwaNdS5xlbxadSxjtdQ5xpbxaexXp2Xvjqrmq1avFuLQYLuDTYJujPYJOi+YJOgp1w2CXrGZZOgJ1w2CXq+ZZOgp1s2Cc0NgXwa9B1VfBr0zVZ8GvR9WHwa9C1afBr0fYl8GvQti3wa9N2MfBr0jY58GjXUueb2SD6NGupcc1Mln0YNK7nGVuk0St9QUs1WLV5hwiBB2yo2Cboz2CTovmCToG0VmwRtq9gkaFvFJkHbKjYJerplk9DYKj4Nerrl06CnWz4N2lbxadC2ik+DtlV8GrSt4tOgbRWfBm2r+DRqqHONreLTqKHONbaKT6OGlVxjq3QapRvBV7NVi53iGSRoW8UmQXcGmwTdF2wStK1ik6BtFZsEbavYJGhbxSZBT7dsEhpbxadBT7d8GvR0y6dB2yo+DdpW8WnQtopPg7ZVfBq0reLToG0Vn0YNda6xVXwaNdS5xlbxadSwkmtslU6jdL/darZqsSEvgwRtq9gk6M5gk6D7gk2CtlVsErStYpOgbRWbBG2r2CTo6ZZNQmOr+DTo6ZZPg55u+TRoW8WnQdsqPg3aVvFp0LaKT4O2VXwatK3i06ihzjW2ik+jhjrX2Co+jRpWco2t0mmUbmtYzVYt9j1kkKBtFZsE3RlsEnRfsEnQtopNgrZVbBK0rWKToG0VmwQ93bJJaDdb49LQ7VbFpaHbyIpLQ7fHFZeGbvsrLg3dnm9cGrrt4Lg0dDvFcWnoNpHj0qihzrVbz3Fp1FDn2g3ruDRqWMk1tmql8b3KDq/LHZ3FkYjk/WoH2WLj2EZ6N24WO8CWbhW72hY6ldn7eBb5aaPbbgrH6TZFR/3kdqttN/uQYzztdu37fS+T4ziZHz8E6WJb5afrr7D3dJ7gPPFlcjFTuxxXPlFxzF9yfJJeOkvkAkNt1Lxs9w3v+40wwggjjDDCCCOMMMIII4wwwggjjDDCCCOMMMIII4wwwggjjDDCCCOMMMIII4wwwggjjDDCCCOMMMIII4wwwggjjDDCCCOM8F8qPLfjO5kkgS8/eerBWsdu/4/Pq6pHY9OXj8ZeyiSQ6fLxWqu5eoB4GsaZHQaRLH1ENn3tOd3yJ2tTu3j1/DQOvSyIoxzKSjM5bV3LUZxIq9qTzx/lWEb+ywtafNbotZuio55cbqsHmdU/VihHmQIrSb1Kaw/GMjuNMtU+ucRoFg0L0sa2+KMkxYpQPp19VfostzqCkWhkkyC106JXqgmp49lJdt5+p95w0vgPsGm2Fb56dDxnX+YdTOM0UAlP8o+rXM3qUGleoUriezOkFVYQ+VLVQ8tpGp69Om7WPXEUyFCNt8ayTRd1Mk7i2VT64uefxd+Wnz/Yg4mXLp9/VwW2/Tw6fzWaN4jtjcdnSsMOZTTOJuKdcMU/hXUchpY4fPmNNAyGstFytq/a37dL6+1PVxInonGTX0r7F3GTyyyH6lJXffb3fMYx7yB1qGG8zHd1893+Iefi6Oho0XjrZSyyLrv9xvRSV8d1Ir0f65z8aHiO6fdVey2v7kgNazUYliOl2MjBHnhpGowj6ffVFhHpVdGS39drylVHT2fppLFuX+Rderjoz/UrKQwPq1ylrb65rkqaJfEPWU1n8d11leKpNwyyeTWp5ZfXvqpCYiW1bpbVRPJyWlmnPIwnH3WsyvnlxCNawjHNZlJu1Vkfm8WqWun7j2WeQh07O+LL71/Fv89/vxCX5xdff/v8q/h4/utvffHh9OK0WoKzfNaWD56yaCKLRRonmYhmt/k4GIpiS5NUeOkwNy9BNK6QcdX2Ks+zldlriuvqk0sis1kSiamXpPIsjL2s4akpfzvvymefXRefVWrMcov2THZ5CWWJHze708uT/yzKvSj2xpYvR94szMQ0ifM5TG41xdZP+/v9/unp1oY3ngEOcIADHOAABzjAAQ5wgAOcvyaOSGe3+X+BhS/Vh8L35oookT5oQAMa0IAGNKABDWhAAxrQgEZPc1/cmvVfNNfhTAIHOMABDnCAAxzgAAc4wAEOcNbBeXpvoKPeG3g5o94b2HGKv7AdH+/uHhyAFKQgBSlIQQpSkIIUpCAFKUhBCtK3QeoWpF5GkbYL0k7Hdfd7IAUpSEEKUpCCFKQgBSlIQQpSkIL0bZB2FOlZEhCk7kFB6jh7e50OSEEKUpCCFKQgBSlIQQpSkIIUpCB9G6S7ivTrZEaR7hekB/nRfQ9SkIIUpCAFKUhBClKQghSkIAUpSN8GaVeR/kv6FOleQXpy0u/v7YEUpCAFKUhBClKQghSkIAUpSEEK0rdB2it+MzGTFGmvIO33ez2QghSkIAUpSEEKUpCCFKQgBSlIQfpWSPcU6aeY2lnQ7Rak+/uu2+2CFKQgBSlIQQpSkIIUpCAFKUhBCtLaSFcofuLdN0qTPdhZkIXycuJNpZ3Jh6yx9SGeJWk5xvzPZ54EtzJKgzgKZVpkKEmxsyOOfV94osgk7oNsItL4Vgq/U3Jmeje2velURn7DUtrWdskJq8P2sixpWA9WU/TahifN85Pc6iel2TyUC7yWFw0ncZKfb4VyZEC7zDGKo6x1L4PxJFM5ruPQr55j0TeX09anWZgN+mE+Rgfu4EvsD5zBt8/5P2cfLwaOuJynrY44C5NW/vNw0joRH76Ew9usFcVJ3i/fPovPp/336muZvBUd8eXymzgfDtV3t7Z1Pf1uJx0mwTT7B/mddzt+cPd6mDyHTpbnEoF/ZA1VGfTzlvOCSCYDx+lZomjPI8sP0mnozQ+DKMxjreswHv74xaIB86yLaxDZfJqfr5p058a78xafas9Ux52XqCErjoQf3E5DaUfy/vJu3LB+egWyKXbb7eKf0hpUeX0v8/LEV39YoXctQ+vQ8uXIy7taTJN4FITSai4igwfr0LHbTevOC2dy+fNQTVX5Ofns0++fnlqPzUp5XKY8HaY8u0x5ukx5ekx59pjy7DPlOWDK47S5EnGNaIdrSDtcY9rhGtQO16h2uIa1wzWuHa6B7XCNbJdrZLtsczXXyHa5RrZrNLJFOru9ffHu6korWiJ9gzRkG5mlIVvILA3ZPmZpyLo3S0NWvVkasubN0pAVb5aGrHezNPRCZpiHaRzTy5hhHqaRTC9ihnmYxjK9hBnmYRrN9AJmmIdpPNPLl2EernmZaTzTa5dhnurj+T6IMvNl61p9VD0P2TyGecjmMcxDNo9hHrLcDfOQ5W6Yhyx3wzxkuRvmIcvdMA+9fpkm4hrR9ApmmohrTNNrmGkirlFNr2KmibjGNb2OmSbiGtn0SmaaiG2u5hrZ9GJmmqj6yH76Y0bpy4apZa794j96i7cRM0i4m5fobF5id/MS3c1L9DYvsbd5if3NSxxsXuLFyr4pjRrq26mhwJ0aKtypocSdGmrcqaHInRqq3KmhzJ0a6tytoc7dOtbxGurcraHO3fXqvPSdjtVs1eKljwwSdG+wSdCdwSZB9wWbBD3lsknQMy6bBD3hsknQ8y2bBD3dsklobBWfRg31rbFVfBo1VLjGVvFp1FDjGlvFp1FDlWtsFZ9GDXWusVV8GnWs4zXUucZW8WmsV+elr86qZqsW79ZikKB7g02C7gw2Cbov2CToKZdNgp5x2SToCZdNgp5v2STo6ZZNQnNDIJ8GfUcVnwZ9sxWfBn0fFp8GfYsWnwZ9XyKfBn3LIp8GfTcjnwZ9oyOfRg11rrk9kk+jhjrX3FTJp1HDSq6xVTqN0jeUVLNVi1eYMEjQtopNgu4MNgm6L9gkaFvFJkHbKjYJ2laxSdC2ik2Cnm7ZJDS2ik+Dnm75NOjplk+DtlV8GrSt4tOgbRWfBm2r+DRoW8WnQdsqPo0a6lxjq/g0aqhzja3i06hhJdfYKp1G6Ubw1WzVYqd4BgnaVrFJ0J3BJkH3BZsEbavYJGhbxSZB2yo2CdpWsUnQ0y2bhMZW8WnQ0y2fBj3d8mnQtopPg7ZVfBq0reLToG0VnwZtq/g0aFvFp1FDnWtsFZ9GDXWusVV8GjWs5BpbpdMo3W+3mq1abMjLIEHbKjYJujPYJOi+YJOgbRWbBG2r2CRoW8UmQdsqNgl6umWT0NgqPg16uuXToKdbPg3aVvFp0LaKT4O2VXwatK3i06BtFZ8Gbav4NGqoc42t4tOooc41topPo4aVXGOrdBql2xpWs1WLfQ8ZJGhbxSZBdwabBN0XbBK0rWKToG0VmwRtq9gkaFvFJkFPt2wS2s3WuDR0u1Vxaeg2suLS0O1xxaWh2/6KS0O35xuXhm47OC4N3U5xXBq6TeS4NGqoc+3Wc1waNdS5dsM6Lo0aVnKNrVppfK+yw+tyR2dxJCJ5v9pBttg4tpHejZvFDrClW8WutoVOZfY+nkV+2ui2m8Jxuk3RUT+53WrbzT7kGE+7Xft+38vkOE7mxw9ButhW+en6K+w9nSc4T3yZXMzULseVT1Qc85ccn6SXzhK5wFAbNS/bfcP7fiOMMMIII4wwwggjjDDCCCOMMMIII4wwwggjjDDCCCOMMMIII4wwwggjjDDCCCOMMMIII4wwwggjjDDCCCOMMMIII4wwwggj/JcKz+34TiZJ4MtPnnqw1rHb/+PzqurR2PTlo7GXMglkuny81mquHiCehnFmh0EkSx+RTV97Trf8ydrULl49P41DLwviKIey0kxOW9dyFCfSqvbk80c5lpH/8oIWnzV67aboqCeX2+pBZvWPFcpRpsBKUq/S2oOxzE6jTLVPLjGaRcOCtLEt/ihJsSKUT2dflT7LrY5gJBrZJEjttOiVakLqeHaSnbffqTecNP4DbJptha8eHc/Zl3kH0zgNVMKT/OMqV7M6VJpXqJL43gxphRVEvlT10HKahmevjpt1TxwFMlTjrbFs00WdjJN4NpW++Pln8bfl5w/2YOKly+ffVYFtP4/OX43mDWJ74/GZ0rBDGY2ziXgnXPFPYR2HoSUOX34jDYOhbLSc7av29+3SevvTlcSJaNzkl9L+RdzkMsuhutRVn/09n3HMO0gdahgv813dfLd/yLk4OjpaNN56GYusy26/Mb3U1XGdSO/HOic/Gp5j+n3VXsurO1LDWg2G5UgpNnKwB16aBuNI+n21RUR6VbTk9/WactXR01k6aazbF3mXHi76c/1KCsPDKldpq2+uq5JmSfxDVtNZfHddpXjqDYNsXk1q+eW1r6qQWEmtm2U1kbycVtYpD+PJRx2rcn458YiWcEyzmZRbddbHZrGqVvr+Y5mnUMfOjvjy+1fx7/PfL8Tl+cXX3z7/Kj6e//pbX3w4vTitluAsn7Xlg6csmshikcZJJqLZbT4OhqLY0iQVXjrMzUsQjStkXLW9yvNsZfaa4rr65JLIbJZEYuolqTwLYy9reGrK38678tln18VnlRqz3KI9k11eQlnix83u9PLkP4tyL4q9seXLkTcLMzFN4nwOk1tNsfXT/n6/f3q6teGNZ4ADHOAABzjAAQ5wgAMc4ADnr4kj0tlt/l9g4Uv1ofC9uSJKpA8a0IAGNKABDWhAAxrQgAY0oNHT3Be3Zv0XzXU4k8ABDnCAAxzgAAc4wAEOcIADnHVwnt4b6Kj3Bl7OqPcGdpziL2zHx7u7BwcgBSlIQQpSkIIUpCAFKUhBClKQgvRtkLoFqZdRpO2CtNNx3f0eSEEKUpCCFKQgBSlIQQpSkIIUpCB9G6QdRXqWBASpe1CQOs7eXqcDUpCCFKQgBSlIQQpSkIIUpCAFKUjfBumuIv06mVGk+wXpQX5034MUpCAFKUhBClKQghSkIAUpSEEK0rdB2lWk/5I+RbpXkJ6c9Pt7eyAFKUhBClKQghSkIAUpSEEKUpCC9G2Q9orfTMwkRdorSPv9Xg+kIAUpSEEKUpCCFKQgBSlIQQpSkL4V0j1F+immdhZ0uwXp/r7rdrsgBSlIQQpSkIIUpCAFKUhBClKQgrQ20hWKn3j3jdJkD3YWZKH8//bOt7dtI+vi759PMcsCjYxKtCj5f+MuHMVuCiRxYKdYbIxAoMWRRIciBZKyLRT+7suhKK/V+JIc6ZJd9zl84Ti64jk/zsyduYnI0eXYnkozlvdx49W7YBZGxRjz7898606kH7mB78koVSiQ2N4WJ44jbJEqiTs3HosomEjhdAvOjG5Hpj2dSt9pGMrb2Co4YXmYdhyHDePeaIq9tuZJ8+SkTvmTonjuyQVey/YH4yBMzjc8OdSgzTSGgR+37qQ7GsdK4zrwnPIai765nLY+zLy43/OSMdrv9D8FTvLzy8e+1T97f9G3xOU8anXFmRe2kt8H49Zb8e6TN5jELT8Ik3758lF8PO29UW+L5UR0xafLL+J8MFDvfbWV19Ovt6NB6E7jX8j3vN523Nvnw+Q5tFiiJVzn2BioNOglLWe7vgz7lrVviLQ9jw3HjaaePT9yfS+Jta69YPDtZ4MGTFQX1yDi+TQ5XzXp9o19ay9ezT1THbd2qIasOBaOO5l60vTl3eXtqGH88AxkU+y02+mPwhxUuo4d24nw1R+GZ19LzzgyHDm0k64W0zAYup40motI/944ssx207i1vZnMfh+oqSo5J5l9er3TU+OhWUqnw6TTZdLZYdLZZdLZY9LZZ9I5YNI5ZNKx2lxCXCPa4hrSFteYtrgGtcU1qi2uYW1xjWuLa2BbXCO7wzWyO2xzNdfI7nCN7I7WyBbRbDJZ+e7qUitaKB0NGbKN9GTIFtKTIdtHT4bMez0ZMuv1ZMic15MhM15Phsx3PRl6IdPUYRrH9DKmqcM0kulFTFOHaSzTS5imDtNophcwTR2m8UwvX5o6XPMy03im1y5NnfLj+c71Y/1l61q9VF6HbB5NHbJ5NHXI5tHUIdNdU4dMd00dMt01dch019Qh011Th16/dIW4RjS9gukKcY1peg3TFeIa1fQqpivENa7pdUxXiGtk0yuZrhDbXM01sunFTFeo/Mh+/DCj8MuGqWWuvfIPvcW3ETNYdKq36FZvsVO9xW71FnvVW+xXb3FQvcVh9RYrK3tVHjXkt1VDgls1ZLhVQ4pbNeS4VUOSWzVkuVVDmls15Hmnhjzv1LGO15DnnRryvLNenhd+p2O5smrxpY8MFnRvsFnQncFmQfcFmwU95bJZ0DMumwU94bJZ0PMtmwU93bJZ5JRVfB415HdOWcXnUUOG55RVfB415HhOWcXnUUOW55RVfB415HlOWcXnUcc6XkOe55RVfB7r5XnhV2eVK6sW363FYEH3BpsF3RlsFnRfsFnQUy6bBT3jslnQEy6bBT3fslnQ0y2bRc4NgXwe9B1VfB70zVZ8HvR9WHwe9C1afB70fYl8HvQti3we9N2MfB70jY58HjXkec7tkXweNeR5zk2VfB41rOQ5ZVWeR+E3lJQrqxZfYcJgQZdVbBZ0Z7BZ0H3BZkGXVWwWdFnFZkGXVWwWdFnFZkFPt2wWOWUVnwc93fJ50NMtnwddVvF50GUVnwddVvF50GUVnwddVvF50GUVn0cNeZ5TVvF51JDnOWUVn0cNK3lOWZXnUbgRfLmyarFTPIMFXVaxWdCdwWZB9wWbBV1WsVnQZRWbBV1WsVnQZRWbBT3dslnklFV8HvR0y+dBT7d8HnRZxedBl1V8HnRZxedBl1V8HnRZxedBl1V8HjXkeU5ZxedRQ57nlFV8HjWs5DllVZ5H4X675cqqxYa8DBZ0WcVmQXcGmwXdF2wWdFnFZkGXVWwWdFnFZkGXVWwW9HTLZpFTVvF50NMtnwc93fJ50GUVnwddVvF50GUVnwddVvF50GUVnwddVvF51JDnOWUVn0cNeZ5TVvF51LCS55RVeR6F2xqWK6sW+x4yWNBlFZsF3RlsFnRfsFnQZRWbBV1WsVnQZRWbBV1WsVnQ0y2bRe5ma1weebtVcXnkbWTF5ZG3xxWXR972V1weeXu+cXnkbQfH5ZG3UxyXR94mclweNeR57tZzXB415HnuhnVcHjWs5Dll1dLja5kdXrMdncWx8OXdcgfZdOPYRnQ7aqY7wBZuFbvcFjqS8Ztg5jtRY7fdFJa12xRd9Vtnt9x2s/cJxuNu147Ts2M5CsL5yb0bLbZVfrz+EntPJwLnoSPDi5na5bj0iYpjvsrxQdrRLJQLDLVRc9buFe/7jTDCCCOMMMIII4wwwggjjDDCCCOMMMIII4wwwggjjDDCCCOMMMIII4wwwggjjDDCCCOMMMIII4wwwggjjDDCCCOMMMIII4zw3yo8N4NbGYauIz/Y6sFay2xv+LyqejQ2Wn009lKGroyyx2uN5vIB4qkXxKbn+rLwEdnoued0i5+sjcz0q+engWfHbuAnUEYUy2nrWg6DUBrlnnx+L0fSd1YvaPFaY6/dFF315HJbPcisfhieHMYKrEB6KWv2RzI+9WPVPonFcOYPUtLGlvijQGJJKB/Pvip8llsd7lA04rEbmVHaK+WM1PHkJDNpv1N7MG78F1hXbYmvHh1P2DPd/jSIXCX4Nnm5zNUsDyXzDFUY3OkhLbFc35EqH1pWU/Ps5XGz7olDV3pqvDWyNl3kySgMZlPpiB9/FP/IXr83+2M7yp5/Vwm29TQ6fzaaNIhpj0ZnysP0pD+Kx+K16Ih/CuPE8wxxtPqOyHMHstGytq7aX7cK8+27KwlC0bhJLqX9s7hJbLKhmvmq135KZhz9DlKHGsaZ3tXNV/ObnIvj4+NF462nmKpm3X6je6nL4zqU9rd1Tn7QPEf3/aq9sqs7VsNaDYZspKQbOZh9O4rckS+dntoiIrpKW/Lrek257OjpLBo31u2LpEuPFv25fiZ53lGZqzTVO9d1ieIw+CbL+Szeu65TMLUHbjwvZ5W9ee2rSi2WVuuqLCeS1WllnfTQnnzUsUzn1YlHtISlq6aTbuVZH5rpqlrq/Q9FNYU6trfFp98/i3+f/34hLs8vPv/28Vfx/vzX33ri3enFaTmBs2TWlve2KtFEHIgoCGPhzybJOBiIdEuTSNjRICleXH9UQnHZ9krnycpsN8V1+ckllPEs9MXUDiN55gV23LDVlL+VdOWT167T10o1ZnGJ9sQ2u4Qi4Ydqd3p5rD/TdE+TvfHKkUN75sViGgbJHCZfNcWrHw4Oer3T01cVbzwDHOAABzjAAQ5wgAMc4AAHOH9PHBHNJsk/gYUj1YvCseeKKJQOaEADGtCABjSgAQ1oQAMa0IAmn+YuvTXrTzTX3kwCBzjAAQ5wgAMc4AAHOMABDnDWwXn83kBLfW/g5Yz63sCulX7CdnKys3N4CFKQghSkIAUpSEEKUpCCFKQgBSlIXwZpJyW1Y4q0nZJ2u53OwR5IQQpSkIIUpCAFKUhBClKQghSkIH0ZpF1Feha6BGnnMCW1rP39bhekIAUpSEEKUpCCFKQgBSlIQQpSkL4M0h1F+nk8o0gPUtLD5Nh9A1KQghSkIAUpSEEKUpCCFKQgBSlIXwbpriL9l3Qo0v2U9O3bXm9/H6QgBSlIQQpSkIIUpCAFKUhBClKQvgzSvfR/JmaSIt1LSXu9vT2QghSkIAUpSEEKUpCCFKQgBSlIQfpSSPcV6YeA2lmws5uSHhx0Oru7IAUpSEEKUpCCFKQgBSlIQQpSkIK0NtIlihPad41CsXszdmNPXo7tqTRjeR83Xr0LZmFUjDH//sy37kT6kRv4noxShQKJ7W1x4jjCFqmSuHPjsYiCiRROt+DM6HZk2tOp9J2GobyNrYITlodpx3HYMO6Npthra540T07qlD8piueeXOC1bH8wDsLkfMOTQw3aTGMY+HHrTrqjcaw0rgPPKa+x6JvLaevDzIv7PS8Zo/1O/1Pg9Lv9Lx/7Vv/s/UXfEpfzqNUVZ17YSn4fjFtvxbtP3mASt/wgTPrly0fx8bT3Rr0tlhPRFZ8uv4jzwUC999VWXk+/3o4GoTuNfyHf83rbcW+fD5Pn0GKJlnCdY2Og0qCXtJzt+jLsW9aBIdL2PDYcN5p69vzI9b0k1rr2gsG3nw0aMFFdXIOI59PkfNWk2zf2rb14NfdMddzaoRqy4lg47mTqSdOXd5e3o4bxwzOQTbHTbqc/CnNQ6Tp2bCfCV38Ynn0tPePIcOTQTrpaTMNg6HrSaC4i/XvjyDLbTePW9mYy+32gpqrknGT26fVOT42HZimdDpNOl0lnh0lnl0lnj0lnn0nngEnnkEnHanMJcY1oi2tIW1xj2uIa1BbXqLa4hrXFNa4troFtcY3sDtfI7rDN1Vwju8M1sjtaI1tEs8lk5burS61ooXQ0ZMg20pMhW0hPhmwfPRky7/VkyKzXkyFzXk+GzHg9GTLf9WTohUxTh2kc08uYpg7TSKYXMU0dprFML2GaOkyjmV7ANHWYxjO9fGnqcM3LTOOZXrs0dcqP5zvXj/WXrWv1Unkdsnk0dcjm0dQhm0dTh0x3TR0y3TV1yHTX1CHTXVOHTHdNHXr90hXiGtH0CqYrxDWm6TVMV4hrVNOrmK4Q17im1zFdIa6RTa9kukJsczXXyKYXM12h8iP78cOMwi8bppa59so/9BbfRsxg0aneolu9xU71FrvVW+xVb7FfvcVB9RaH1VusrOxVedSQ31YNCW7VkOFWDSlu1ZDjVg1JbtWQ5VYNaW7VkOedGvK8U8c6XkOed2rI8856eV74nY7lyqrFlz4yWNC9wWZBdwabBd0XbBb0lMtmQc+4bBb0hMtmQc+3bBb0dMtmkVNW8XnUkN85ZRWfRw0ZnlNW8XnUkOM5ZRWfRw1ZnlNW8XnUkOc5ZRWfRx3reA15nlNW8Xmsl+eFX51VrqxafLcWgwXdG2wWdGewWdB9wWZBT7lsFvSMy2ZBT7hsFvR8y2ZB3xvFZpFzQyCfB31HFZ8HfbMVnwd9HxafB32LFp8HfV8inwd9yyKfB303I58HfaMjn0cNeZ5TVvF51LGO17CQ55RVfB7rLeWF31BSrqxafIUJgwXdG2wWdGewWdB9wWZBl1VsFnRZxWZBl1VsFnRZxWZBT7dsFjllFZ8HXVbxedBlFZ8HXVbxedBlFZ8HXVbxedBlFZ8HXVbxedBlFZ9HDXmeU1bxedSxjtewkOeUVXwe6y3lhRvBlyurFjvFM1jQvcFmQXcGmwXdF2wWdFnFZkGXVWwWdFnFZkGXVWwW9HTLZpFTVvF50GUVnwddVvF50GUVnwddVvF50GUVnwddVvF50GUVnwddVvF51JDnOWUVn0cd63gNC3lOWcXnsd5SXrjfbrmyarEhL4MF3RtsFnRnsFnQfcFmQZdVbBZ0WcVmQZdVbBZ0WcVmQU+3bBY5ZRWfB11W8XnQZRWfB11W8XnQZRWfB11W8XnQZRWfB11W8XnQZRWfRw15nlNW8XnUsY7XsJDnlFV8Hust5YXbGpYrqxb7HjJY0L3BZkF3BpsF3RdsFnRZxWZBl1VsFnRZxWZBl1VsFnn7TjFZ5G62xuWRt1sVl0feRlZcHnl7XHF55G1/xeWRt+cbl0fednBcHnk7xXF55G0ix+VRQ57nlFV8HnWs4zUs5DllFZ9H8VL+tcwOr9mOzuJY+PJuuYNsunFsI7odNdMdYAu3il1uCx3J+E0w852osdtuCsvabYqu+q2zW2672fsE43G3a8fp2bEcBeH85N6NFtsqP15/ib2nE4Hz0JHhxUztclz6RMUxX+X4IO1oFsoFhtqoOWv3ivf9RhhhhBFGGGGEEUYYYYQRRhhhhBFGGGGEEUYYYYQRRhhhhBFGGGGEEUYYYYQRRhhhhBFGGGGEEUYYYYQRRhhhhBFGGGGEEUb4bxWem8GtDEPXkR9s9WCtZbY3fF5VPRobrT4aeylDV0bZ47VGc/kA8dQLYtNzfVn4iGz03HO6xU/WRmb61fPTwLNjN/ATKCOK5bR1LYdBKI1yTz6/lyPpO6sXtHitsdduiq56crmtHmRWPwxPDmMFViC9lDX7Ixmf+rFqn8RiOPMHKWljS/xRILEklI9nXxU+y60Odyga8diNzCjtlXJG6nhykpm036k9GDf+C6yrtsRXj44n7JlufxpErhJ8m7xc5mqWh5J5hioM7vSQlliu70iVDy2rqXn28rhZ98ShKz013hpZmy7yZBQGs6l0xI8/in9kr9+b/bEdZc+/qwTbehqdPxtNGsS0R6Mz5WF60h/FY/FadMQ/hXHieYY4Wn1H5LkD2WhZW1ftr1uF+fbdlQShaNwkl9L+WdwkNtlQzXzVaz8lM45+B6lDDeNM7+rmq/lNzsXx8fGi8dZTTFWzbr/RvdTlcR1K+9s6Jz9onqP7ftVe2dUdq2GtBkM2UtKNHMy+HUXuyJdOT20REV2lLfl1vaZcdvR0Fo0b6/ZF0qVHi/5cP5M876jMVZrqneu6RHEYfJPlfBbvXdcpmNoDN56Xs8revPZVpRZLq3VVlhPJ6rSyTnpoTz7qWKbz6sQjWsLSVdNJt/KsD810VS31/oeimkId29vi0++fxb/Pf78Ql+cXn3/7+Kt4f/7rbz3x7vTitJzAWTJry3tblWgiDkQUhLHwZ5NkHAxEuqVJJOxokBQvrj8qobhse6XzZGW2m+K6/OQSyngW+mJqh5E88wI7bthqyt9KuvLJa9fpa6Uas7hEe2KbXUKR8EO1O7081p9puqfJ3njlyKE982IxDYNkDpOvmuLVDwcHvd7p6auKN54BDnCAAxzgAAc4wAEOcIADnL8njohmk+SfwMKR6kXh2HNFFEoHNKABDWhAAxrQgAY0oAENaECTT3OX3pr1J5prbyaBAxzgAAc4wAEOcIADHOAABzjr4Dx+b6ClvjfwckZ9b2DXSj9hOznZ2Tk8BClIQQpSkIIUpCAFKUhBClKQghSkL4O0k5LaMUXaTkm73U7nYA+kIAUpSEEKUpCCFKQgBSlIQQpSkL4M0q4iPQtdgrRzmJJa1v5+twtSkIIUpCAFKUhBClKQghSkIAUpSF8G6Y4i/TyeUaQHKelhcuy+ASlIQQpSkIIUpCAFKUhBClKQghSkL4N0V5H+SzoU6X5K+vZtr7e/D1KQghSkIAUpSEEKUpCCFKQgBSlIXwbpXvo/EzNJke6lpL3e3h5IQQpSkIIUpCAFKUhBClKQghSkIH0ppPuK9ENA7SzY2U1JDw46nd1dkIIUpCAFKUhBClKQghSkIAUpSEFaG+kSxQntu0ah2L0Zu7EnL8f2VJqxvI8br94FszAqxph/f+ZbdyL9yA18T0apQoHE9rY4cRxhi1RJ3LnxWETBRAqnW3BmdDsy7elU+k7DUN7GVsEJy8O04zhsGPdGU+y1NU+aJyd1yp8UxXNPLvBatj8YB2FyvuHJoQZtpjEM/Lh1J93ROFYa14HnlNdY9M3ltHU+HLoDGfW/fOxb/bP3F31LXM6jVleceWEr+X0wbp2Id5+8wSRuSTuKxZeP4uNp7416Vywnois+XX4R54OBeuurrbzefb0dDUJ3Gv9Cvuf1tuPePh8mz6HFEi3hOsfGQA39XtJatuvLsG9Zh4ZI2/DYcNxo6tnzI9f3kljr2gsG3342aMBEdXENIp5Pk/NVM27f2Lf24tXcM9Vxa4dqmIpj4biTqSdNX95d3o4axg/PQDbFTrud/ijMO6Xr2LGdCF/9YXj2tfSMI8ORQ3vmxWIaBkPXk0ZzEenfG0eW2W4at7Y3k8bR3qF5+OQ4OGwaAzVZJQrJ/NPrnZ4aD81Sqp1KVLuVqO5UorpbiepeJar7lageVKJ6WImq1a5GtprssqpJL6ua/LKqSTCrmgyzqkkxq5ocs6pJMquaLOtUk2WditawarKsU02WdTbIMhHNJpOV7/9eo0IIpaMhWrJt9URLtqyeaMl21RMtOXfpiZacufRES85beqIlZy090ZJzlp5o2cJAU7WSnCpbFmiqVpJVZYsCTdVK8qpsSaCpWklmlS0INFUrya2y5YCmajXrVSW5VbYW0FRdN7fuXD/etAy4Vm8or1qyWTVVSzarpmrJZtVULTllaaqWnLI0VUtOWZqqJacsTdWSU5amatl6QFe2muwqWxHoylaTX2VrAl3ZajKsbFWgK1tNjpWtC3Rlq8myspWBrmxFa1g1WVa2ONCV1cqyr2U+cMg+VBTHwpd3yw800s8xGtHtqJl+IFH4ycXyk8lIxm+Cme9Ejd12U1jWblN01W+d3XKfftwnGI8fuDpOz47lKAjnJ/dutPhk77EpSnz8mQich44ML2bqg7bSJyqO+SrHB2lHs1AuMNRnhVkXbPqBbvpB0qrVpQxdGWW4iVPWIVMviE316VahZfTcdReTRmY67qaBZ8du4CdQRhTLaetaDoNQGuVG0ns5kr6zekGL1xp7ySjoqpGgPgyz1I/s89LCj5KXsmZ/JONTP1btk1gMZ/4gJW1siT9KfGCqCOXj2VeFuaEOdyga8diNknGtzitnpI4nJ5lJ+53ag3Hjv8C6akv87LPBTLc/DSJXCb5NXi5zNctDyTxDFQZ3ekhLLNd3pErcltXUPHt53Kx74tCVnhpvjaxNF3kyCoPZVDrixx/FP7LX783+2I6y+UQl2NbT6PzZaNIgpj0anSkP05P+KB6L16Ij/imME88zxNHqOyLPHchGy9q6an/dKsy3764kCEXjJrmU9s/iJrHJhmrmq1776VhY+h2kDjWMM72rm6/mN5lMb8fHi8ZbTzFVzbr9RvdSl8d1KO1v65z8oHmO7vtVe2VXd6yGtRoM2UhJF0azv7gZSDrp7UDRVdqSX9drymVHT2fRuLFuXyRderToz/UzyfOOylylqd65rksUh8E3Wc5n8d51nYKpPXDjeTmr7M1rX1VqsbRaV2U5kaxOK+ukh/bko45lOq9OPKIlLF01nXQrz/rQTFfVUu9/KKop1LG9LT79/ln8+/z3C3F5fvH5t4+/ivfnv/7WE+9OL07LCZwls7a8t1WJJuJAREFSSPuzSTIOBiItESNhR4OkeHH9UQnFZdsrnScrs90U1+Unl1DGs9AXUzuM5JkX2HHDVlP+VtKVT167Tl8r1ZjFJdoT2+wSioQf/oKbNv/0AWx2Z6b6QPUvuYcUOMABDnCAAxzgAAc4wAEOcF48zvc3uCiiUDqgAQ1oQAMa0IAGNKABDWhAA5p8mu9uCVQ06hY/4AAHOMABDnCAAxzgAAc4wAHOX7hV4mc5mcrQjmehFI2zLWyW+D+1WeK/bDXi3sn0j5PJtSv9WKguUzsfSmeWtH9L7LfPXsYmiJ32C9gEMYGsaxPE9NHTdTdhYtLpMunsMOnsMunsMensM+kcMOkcMums7C6wkRDXiLa4hrTFNaYtrkFtcY1qi2tYW1zj2uIa2BbXyO5wjewO21zNNbI7XCO7ozWyy2/atyK1/jZ9G8iQLbT+VnwbyJB5v/52exvIkDm//pZ6G8iQ+b7Btnmb6DCNY3oZ22AzvE10mIYyvYZtsMXdJjpMo5lewDbYuG6TeZBpPNOr1wbb0W2iwzSe6aVr/U3mVmQ22FZuEx2yeTbYOm4THTLdN9gebhMdMt032AJuEx0y3TfZ5m0jIa4RTa9gm2zetpEQ16CmF7FNtmTbSIhrXNPr2CYbrW00M3KNbHop22T7tI2EuEY2vZphU7QXsSkawggjjDDCCCOMMMIII4wwwggjjDDC/0vhuRncyjB0HfnBVv9RZZltbIr/5EqwKf7jgU3xtQ5sio9N8TUObIr/5wOb4v/5wKb4mgc2xcem+M8e2BQfOMABDnCAAxzgAAc4wAEOcIDzEraUBA1oQAMa0IAGNKABDWhAA5qXQ/P/ZitL4AAHOMABDnCAAxzgAAc4wFnf7y/YFP+tO5F+5Aa+J6MIW+L/b22JH4TfxOlw6A5c6Q/mjxvh17sFfvbuP0We/n35++LPR/Xsl8c/rgNnrv4cxxPvl//7D2KUwLA="
               },
               {
                  "name" : "annual_peak_electric_demand",
                  "units" : "kW",
                  "value" : 269.29090000000002
               },
               {
                  "name" : "first_year_capital_cost",
                  "units" : "$",
                  "value" : 0
               },
               {
                  "name" : "annual_utility_cost",
                  "units" : "$",
                  "value" : 0
               },
               {
                  "name" : "total_lifecycle_cost",
                  "units" : "$",
                  "value" : 0
               }
            ],
            "step_warnings" : []
         }
      }
   ],
   "updated_at" : "20170710T184919Z",
   "weather_file" : "USA_CO_Denver.Intl.AP.725650_TMY3.epw"
}
