{
   "completed_at" : "20170710T192549Z",
   "completed_status" : "Success",
   "created_at" : "2017-07-10 19:23:51 +0000",
   "current_step" : 5,
   "description" : "",
   "eplusout_err" : "Program Version,EnergyPlus, Version 8.7.0-78a111df4a, YMD=2017.07.10 19:24,IDD_Version 8.7.0\n   ************* IDF Context for following error/warning message:\n   ************* Note -- lines truncated at 300 characters, if necessary...\n   *************      5 Building,\n   ************* indicated Name=NECB 2011-SmallOffice-NECB HDD Method-CAN_SK_Saskatoon.718660_CWEC.epw created: 2017-07-10 19:23:57 +0000\n   ************* Only last 1 lines before error line shown.....\n   *************      6   NECB 2011-SmallOffice-NECB HDD Method-CAN_SK_Saskatoon.718660_CWEC.epw created: 2017-07-10 19:23:57 +0000, !- Name\n   ** Warning ** IP: IDF line~6 Alpha Argument length exceeds maximum, will be truncated=  NECB 2011-SmallOffice-NECB HDD Method-CAN_SK_Saskatoon.718660_CWEC.epw created: 2017-07-10 19:23:57 +000\n   **   ~~~   ** Will be processed as Alpha=NECB 2011-SMALLOFFICE-NECB HDD METHOD-CAN_SK_SASKATOON.718660_CWEC.EPW CREATED: 2017-07-10 19:23:57 +0000\n   ************* Beginning Zone Sizing Calculations\n   ** Warning ** ProcessScheduleInput: Schedule:Day:Interval=\"ECONOMIZER MAX OA FRACTION 100 PCT DEFAULT\", Blank Schedule Type Limits Name input -- will not be validated.\n   ** Warning ** ProcessScheduleInput: Schedule:Day:Interval=\"SCHEDULE DAY 1\", Blank Schedule Type Limits Name input -- will not be validated.\n   ** Warning ** ProcessScheduleInput: Schedule:Day:Interval=\"SCHEDULE DAY 10\", Blank Schedule Type Limits Name input -- will not be validated.\n   ** Warning ** ProcessScheduleInput: Schedule:Day:Interval=\"SCHEDULE DAY 11\", Blank Schedule Type Limits Name input -- will not be validated.\n   ** Warning ** ProcessScheduleInput: Schedule:Day:Interval=\"SCHEDULE DAY 12\", Blank Schedule Type Limits Name input -- will not be validated.\n   ** Warning ** ProcessScheduleInput: Schedule:Day:Interval=\"SCHEDULE DAY 13\", Blank Schedule Type Limits Name input -- will not be validated.\n   ** Warning ** ProcessScheduleInput: Schedule:Day:Interval=\"SCHEDULE DAY 14\", Blank Schedule Type Limits Name input -- will not be validated.\n   ** Warning ** ProcessScheduleInput: Schedule:Day:Interval=\"SCHEDULE DAY 15\", Blank Schedule Type Limits Name input -- will not be validated.\n   ** Warning ** ProcessScheduleInput: Schedule:Day:Interval=\"SCHEDULE DAY 16\", Blank Schedule Type Limits Name input -- will not be validated.\n   ** Warning ** ProcessScheduleInput: Schedule:Day:Interval=\"SCHEDULE DAY 17\", Blank Schedule Type Limits Name input -- will not be validated.\n   ** Warning ** ProcessScheduleInput: Schedule:Day:Interval=\"SCHEDULE DAY 18\", Blank Schedule Type Limits Name input -- will not be validated.\n   ** Warning ** ProcessScheduleInput: Schedule:Day:Interval=\"SCHEDULE DAY 19\", Blank Schedule Type Limits Name input -- will not be validated.\n   ** Warning ** ProcessScheduleInput: Schedule:Day:Interval=\"SCHEDULE DAY 2\", Blank Schedule Type Limits Name input -- will not be validated.\n   ** Warning ** ProcessScheduleInput: Schedule:Day:Interval=\"SCHEDULE DAY 20\", Blank Schedule Type Limits Name input -- will not be validated.\n   ** Warning ** ProcessScheduleInput: Schedule:Day:Interval=\"SCHEDULE DAY 21\", Blank Schedule Type Limits Name input -- will not be validated.\n   ** Warning ** ProcessScheduleInput: Schedule:Day:Interval=\"SCHEDULE DAY 5\", Blank Schedule Type Limits Name input -- will not be validated.\n   ** Warning ** ProcessScheduleInput: Schedule:Day:Interval=\"SCHEDULE DAY 6\", Blank Schedule Type Limits Name input -- will not be validated.\n   ** Warning ** ProcessScheduleInput: Schedule:Day:Interval=\"SCHEDULE DAY 7\", Blank Schedule Type Limits Name input -- will not be validated.\n   ** Warning ** ProcessScheduleInput: Schedule:Day:Interval=\"SCHEDULE DAY 8\", Blank Schedule Type Limits Name input -- will not be validated.\n   ** Warning ** ProcessScheduleInput: Schedule:Day:Interval=\"SCHEDULE DAY 9\", Blank Schedule Type Limits Name input -- will not be validated.\n   ** Warning ** ProcessScheduleInput: Schedule:Year=\"ECONOMIZER MAX OA FRACTION 100 PCT\", Blank Schedule Type Limits Name input -- will not be validated.\n   ** Warning ** ProcessScheduleInput: Schedule:Year=\"SCHEDULE RULESET 10\", Blank Schedule Type Limits Name input -- will not be validated.\n   ** Warning ** ProcessScheduleInput: Schedule:Year=\"SCHEDULE RULESET 11\", Blank Schedule Type Limits Name input -- will not be validated.\n   ** Warning ** ProcessScheduleInput: Schedule:Year=\"SCHEDULE RULESET 12\", Blank Schedule Type Limits Name input -- will not be validated.\n   ** Warning ** ProcessScheduleInput: Schedule:Year=\"SCHEDULE RULESET 13\", Blank Schedule Type Limits Name input -- will not be validated.\n   ** Warning ** ProcessScheduleInput: Schedule:Year=\"SCHEDULE RULESET 14\", Blank Schedule Type Limits Name input -- will not be validated.\n   ** Warning ** ProcessScheduleInput: Schedule:Year=\"SCHEDULE RULESET 15\", Blank Schedule Type Limits Name input -- will not be validated.\n   ** Warning ** ProcessScheduleInput: Schedule:Year=\"SCHEDULE RULESET 16\", Blank Schedule Type Limits Name input -- will not be validated.\n   ** Warning ** ProcessScheduleInput: Schedule:Year=\"SCHEDULE RULESET 17\", Blank Schedule Type Limits Name input -- will not be validated.\n   ** Warning ** ProcessScheduleInput: Schedule:Year=\"SCHEDULE RULESET 3\", Blank Schedule Type Limits Name input -- will not be validated.\n   ** Warning ** ProcessScheduleInput: Schedule:Year=\"SCHEDULE RULESET 4\", Blank Schedule Type Limits Name input -- will not be validated.\n   ** Warning ** ProcessScheduleInput: Schedule:Year=\"SCHEDULE RULESET 5\", Blank Schedule Type Limits Name input -- will not be validated.\n   ** Warning ** ProcessScheduleInput: Schedule:Year=\"SCHEDULE RULESET 6\", Blank Schedule Type Limits Name input -- will not be validated.\n   ** Warning ** ProcessScheduleInput: Schedule:Year=\"SCHEDULE RULESET 7\", Blank Schedule Type Limits Name input -- will not be validated.\n   ** Warning ** ProcessScheduleInput: Schedule:Year=\"SCHEDULE RULESET 8\", Blank Schedule Type Limits Name input -- will not be validated.\n   ** Warning ** ProcessScheduleInput: Schedule:Year=\"SCHEDULE RULESET 9\", Blank Schedule Type Limits Name input -- will not be validated.\n   ** Warning ** ProcessScheduleInput: Schedule:Constant=\"ALWAYS OFF DISCRETE\", Blank Schedule Type Limits Name input -- will not be validated.\n   ** Warning ** ProcessScheduleInput: Schedule:Constant=\"ALWAYS ON CONTINUOUS\", Blank Schedule Type Limits Name input -- will not be validated.\n   ** Warning ** CheckUsedConstructions: There are 22 nominally unused constructions in input.\n   **   ~~~   ** For explicit details on each unused construction, use Output:Diagnostics,DisplayExtraWarnings;\n   ************* Beginning System Sizing Calculations\n   ************* Beginning Plant Sizing Calculations\n   ** Warning ** GetDXCoils: Coil:Cooling:DX:SingleSpeed=\"COIL COOLING DX SINGLE SPEED 5 16KBTU/HR 14.0SEER\", invalid\n   **   ~~~   ** ...Part Load Fraction Correlation Curve Name = DXCOOL-NECB2011-REF-COOLPLFFPLR 4 has out of range value.\n   **   ~~~   ** ...Curve maximum must be <= 1.0, curve max at PLR = 0.99 is 1.015\n   **   ~~~   ** ...Setting curve maximum to 1.0 and simulation continues.\n   ** Warning ** GetDXCoils: Coil:Cooling:DX:SingleSpeed=\"COIL COOLING DX SINGLE SPEED 4 21KBTU/HR 14.0SEER\", invalid\n   **   ~~~   ** ...Part Load Fraction Correlation Curve Name = DXCOOL-NECB2011-REF-COOLPLFFPLR 3 has out of range value.\n   **   ~~~   ** ...Curve maximum must be <= 1.0, curve max at PLR = 0.99 is 1.015\n   **   ~~~   ** ...Setting curve maximum to 1.0 and simulation continues.\n   ** Warning ** GetDXCoils: Coil:Cooling:DX:SingleSpeed=\"COIL COOLING DX SINGLE SPEED 2 18KBTU/HR 14.0SEER\", invalid\n   **   ~~~   ** ...Part Load Fraction Correlation Curve Name = DXCOOL-NECB2011-REF-COOLPLFFPLR 1 has out of range value.\n   **   ~~~   ** ...Curve maximum must be <= 1.0, curve max at PLR = 0.99 is 1.015\n   **   ~~~   ** ...Setting curve maximum to 1.0 and simulation continues.\n   ** Warning ** GetDXCoils: Coil:Cooling:DX:SingleSpeed=\"COIL COOLING DX SINGLE SPEED 1 16KBTU/HR 14.0SEER\", invalid\n   **   ~~~   ** ...Part Load Fraction Correlation Curve Name = DXCOOL-NECB2011-REF-COOLPLFFPLR has out of range value.\n   **   ~~~   ** ...Curve maximum must be <= 1.0, curve max at PLR = 0.99 is 1.015\n   **   ~~~   ** ...Setting curve maximum to 1.0 and simulation continues.\n   ** Warning ** GetDXCoils: Coil:Cooling:DX:SingleSpeed=\"COIL COOLING DX SINGLE SPEED 3 19KBTU/HR 14.0SEER\", invalid\n   **   ~~~   ** ...Part Load Fraction Correlation Curve Name = DXCOOL-NECB2011-REF-COOLPLFFPLR 2 has out of range value.\n   **   ~~~   ** ...Curve maximum must be <= 1.0, curve max at PLR = 0.99 is 1.015\n   **   ~~~   ** ...Setting curve maximum to 1.0 and simulation continues.\n   ** Warning ** The Standard Ratings is calculated for Coil:Cooling:DX:SingleSpeed = COIL COOLING DX SINGLE SPEED 5 16KBTU/HR 14.0SEER but not at the AHRI test condition due to curve out of bound.\n   **   ~~~   **  Review the Standard Ratings calculations in the Engineering Reference for this coil type. Also, use Output:Diagnostics, DisplayExtraWarnings for further guidance.\n   ** Warning ** The Standard Ratings is calculated for Coil:Cooling:DX:SingleSpeed = COIL COOLING DX SINGLE SPEED 4 21KBTU/HR 14.0SEER but not at the AHRI test condition due to curve out of bound.\n   **   ~~~   **  Review the Standard Ratings calculations in the Engineering Reference for this coil type. Also, use Output:Diagnostics, DisplayExtraWarnings for further guidance.\n   ** Warning ** The Standard Ratings is calculated for Coil:Cooling:DX:SingleSpeed = COIL COOLING DX SINGLE SPEED 2 18KBTU/HR 14.0SEER but not at the AHRI test condition due to curve out of bound.\n   **   ~~~   **  Review the Standard Ratings calculations in the Engineering Reference for this coil type. Also, use Output:Diagnostics, DisplayExtraWarnings for further guidance.\n   ** Warning ** The Standard Ratings is calculated for Coil:Cooling:DX:SingleSpeed = COIL COOLING DX SINGLE SPEED 1 16KBTU/HR 14.0SEER but not at the AHRI test condition due to curve out of bound.\n   **   ~~~   **  Review the Standard Ratings calculations in the Engineering Reference for this coil type. Also, use Output:Diagnostics, DisplayExtraWarnings for further guidance.\n   ** Warning ** The Standard Ratings is calculated for Coil:Cooling:DX:SingleSpeed = COIL COOLING DX SINGLE SPEED 3 19KBTU/HR 14.0SEER but not at the AHRI test condition due to curve out of bound.\n   **   ~~~   **  Review the Standard Ratings calculations in the Engineering Reference for this coil type. Also, use Output:Diagnostics, DisplayExtraWarnings for further guidance.\n   ** Warning ** Check input. Pump nominal power or motor efficiency is set to 0, for pump=SERVICE WATER LOOP PUMP\n   ** Warning ** Output:Meter: invalid Name=\"DISTRICTCOOLING:FACILITY\" - not found.\n   ** Warning ** Output:Meter: invalid Name=\"DISTRICTHEATING:FACILITY\" - not found.\n   ** Warning ** Output:Meter:MeterFileOnly requested for \"Electricity:Facility\" (TimeStep), already on \"Output:Meter\". Will report to both eplusout.eso and eplusout.mtr\n   ************* Testing Individual Branch Integrity\n   ************* All Branches passed integrity testing\n   ************* Testing Individual Supply Air Path Integrity\n   ************* All Supply Air Paths passed integrity testing\n   ************* Testing Individual Return Air Path Integrity\n   ************* All Return Air Paths passed integrity testing\n   ************* No node connection errors were found.\n   ************* Beginning Simulation\n   ** Warning ** CalcDoe2DXCoil: Coil:Cooling:DX:SingleSpeed \"COIL COOLING DX SINGLE SPEED 5 16KBTU/HR 14.0SEER\" - Air-cooled condenser inlet dry-bulb temperature below 0 C. Outdoor dry-bulb temperature = -14.35\n   **   ~~~   **  ... Occurrence info = RUN PERIOD 1, 01/02 06:03 - 06:05\n   **   ~~~   ** ... Operation at low ambient temperatures may require special performance curves.\n   ** Warning ** CalcDoe2DXCoil: Coil:Cooling:DX:SingleSpeed \"COIL COOLING DX SINGLE SPEED 5 16KBTU/HR 14.0SEER\" - Full load outlet air dry-bulb temperature < 2C. This indicates the possibility of coil frost/freeze. Outlet temperature = -2.00 C.\n   **   ~~~   **  ...Occurrence info = RUN PERIOD 1, 01/02 06:03 - 06:05\n   **   ~~~   ** ... Possible reasons for low outlet air dry-bulb temperatures are: This DX coil\n   **   ~~~   **    1) may have a low inlet air dry-bulb temperature. Inlet air temperature = 11.941 C.\n   **   ~~~   **    2) may have a low air flow rate per watt of cooling capacity. Check inputs.\n   **   ~~~   **    3) is used as part of a HX assisted cooling coil which uses a high sensible effectiveness. Check inputs.\n   ** Warning ** CalcDoe2DXCoil: Coil:Cooling:DX:SingleSpeed \"COIL COOLING DX SINGLE SPEED 4 21KBTU/HR 14.0SEER\" - Air-cooled condenser inlet dry-bulb temperature below 0 C. Outdoor dry-bulb temperature = -14.35\n   **   ~~~   **  ... Occurrence info = RUN PERIOD 1, 01/02 06:03 - 06:05\n   **   ~~~   ** ... Operation at low ambient temperatures may require special performance curves.\n   ** Warning ** CalcDoe2DXCoil: Coil:Cooling:DX:SingleSpeed \"COIL COOLING DX SINGLE SPEED 1 16KBTU/HR 14.0SEER\" - Air-cooled condenser inlet dry-bulb temperature below 0 C. Outdoor dry-bulb temperature = -14.35\n   **   ~~~   **  ... Occurrence info = RUN PERIOD 1, 01/02 06:03 - 06:05\n   **   ~~~   ** ... Operation at low ambient temperatures may require special performance curves.\n   ** Warning ** CalcDoe2DXCoil: Coil:Cooling:DX:SingleSpeed \"COIL COOLING DX SINGLE SPEED 1 16KBTU/HR 14.0SEER\" - Full load outlet air dry-bulb temperature < 2C. This indicates the possibility of coil frost/freeze. Outlet temperature = 0.33 C.\n   **   ~~~   **  ...Occurrence info = RUN PERIOD 1, 01/02 06:03 - 06:05\n   **   ~~~   ** ... Possible reasons for low outlet air dry-bulb temperatures are: This DX coil\n   **   ~~~   **    1) may have a low inlet air dry-bulb temperature. Inlet air temperature = 13.946 C.\n   **   ~~~   **    2) may have a low air flow rate per watt of cooling capacity. Check inputs.\n   **   ~~~   **    3) is used as part of a HX assisted cooling coil which uses a high sensible effectiveness. Check inputs.\n   ** Warning ** CalcDoe2DXCoil: Coil:Cooling:DX:SingleSpeed \"COIL COOLING DX SINGLE SPEED 2 18KBTU/HR 14.0SEER\" - Air-cooled condenser inlet dry-bulb temperature below 0 C. Outdoor dry-bulb temperature = -0.95\n   **   ~~~   **  ... Occurrence info = RUN PERIOD 1, 01/03 06:03 - 06:05\n   **   ~~~   ** ... Operation at low ambient temperatures may require special performance curves.\n   ** Warning ** CalcDoe2DXCoil: Coil:Cooling:DX:SingleSpeed \"COIL COOLING DX SINGLE SPEED 3 19KBTU/HR 14.0SEER\" - Air-cooled condenser inlet dry-bulb temperature below 0 C. Outdoor dry-bulb temperature = -0.95\n   **   ~~~   **  ... Occurrence info = RUN PERIOD 1, 01/03 06:03 - 06:05\n   **   ~~~   ** ... Operation at low ambient temperatures may require special performance curves.\n   ** Warning ** CalcDoe2DXCoil: Coil:Cooling:DX:SingleSpeed \"COIL COOLING DX SINGLE SPEED 2 18KBTU/HR 14.0SEER\" - Full load outlet air dry-bulb temperature < 2C. This indicates the possibility of coil frost/freeze. Outlet temperature = 1.65 C.\n   **   ~~~   **  ...Occurrence info = RUN PERIOD 1, 01/09 21:15 - 21:18\n   **   ~~~   ** ... Possible reasons for low outlet air dry-bulb temperatures are: This DX coil\n   **   ~~~   **    1) may have a low inlet air dry-bulb temperature. Inlet air temperature = 15.030 C.\n   **   ~~~   **    2) may have a low air flow rate per watt of cooling capacity. Check inputs.\n   **   ~~~   **    3) is used as part of a HX assisted cooling coil which uses a high sensible effectiveness. Check inputs.\n   ** Warning ** CalcDoe2DXCoil: Coil:Cooling:DX:SingleSpeed \"COIL COOLING DX SINGLE SPEED 3 19KBTU/HR 14.0SEER\" - Full load outlet air dry-bulb temperature < 2C. This indicates the possibility of coil frost/freeze. Outlet temperature = 1.94 C.\n   **   ~~~   **  ...Occurrence info = RUN PERIOD 1, 01/09 21:15 - 21:18\n   **   ~~~   ** ... Possible reasons for low outlet air dry-bulb temperatures are: This DX coil\n   **   ~~~   **    1) may have a low inlet air dry-bulb temperature. Inlet air temperature = 15.321 C.\n   **   ~~~   **    2) may have a low air flow rate per watt of cooling capacity. Check inputs.\n   **   ~~~   **    3) is used as part of a HX assisted cooling coil which uses a high sensible effectiveness. Check inputs.\n   ************* Simulation Error Summary *************\n   ************* There are 9 unused schedules in input.\n   ************* There are 9 unused week schedules in input.\n   ************* There are 14 unused day schedules in input.\n   ************* Use Output:Diagnostics,DisplayUnusedSchedules; to see them.\n   *************\n   ************* ===== Recurring Error Summary =====\n   ************* The following recurring error messages occurred.\n   *************\n   *************  ** Warning ** CalcDoe2DXCoil: Coil:Cooling:DX:SingleSpeed=\"COIL COOLING DX SINGLE SPEED 5 16KBTU/HR 14.0SEER\" - Low condenser dry-bulb temperature error continues...\n   *************  **   ~~~   **   This error occurred 410 total times;\n   *************  **   ~~~   **   during Warmup 0 times;\n   *************  **   ~~~   **   during Sizing 0 times.\n   *************  **   ~~~   **   Max=-5.000000E-002 [C]  Min=-17.55 [C]\n   *************\n   *************  ** Warning ** CalcDoe2DXCoil: Coil:Cooling:DX:SingleSpeed=\"COIL COOLING DX SINGLE SPEED 5 16KBTU/HR 14.0SEER\" - Full load outlet temperature indicates a possibility of frost/freeze error continues. Outlet air temperature statistics follow:\n   *************  **   ~~~   **   This error occurred 396 total times;\n   *************  **   ~~~   **   during Warmup 0 times;\n   *************  **   ~~~   **   during Sizing 0 times.\n   *************  **   ~~~   **   Max=1.999744  Min=-2.212562\n   *************\n   *************  ** Warning ** CalcDoe2DXCoil: Coil:Cooling:DX:SingleSpeed=\"COIL COOLING DX SINGLE SPEED 4 21KBTU/HR 14.0SEER\" - Low condenser dry-bulb temperature error continues...\n   *************  **   ~~~   **   This error occurred 998 total times;\n   *************  **   ~~~   **   during Warmup 0 times;\n   *************  **   ~~~   **   during Sizing 0 times.\n   *************  **   ~~~   **   Max=-1.387779E-017 [C]  Min=-36.575 [C]\n   *************\n   *************  ** Warning ** CalcDoe2DXCoil: Coil:Cooling:DX:SingleSpeed=\"COIL COOLING DX SINGLE SPEED 1 16KBTU/HR 14.0SEER\" - Low condenser dry-bulb temperature error continues...\n   *************  **   ~~~   **   This error occurred 441 total times;\n   *************  **   ~~~   **   during Warmup 0 times;\n   *************  **   ~~~   **   during Sizing 0 times.\n   *************  **   ~~~   **   Max=-2.500000E-002 [C]  Min=-27.2 [C]\n   *************\n   *************  ** Warning ** CalcDoe2DXCoil: Coil:Cooling:DX:SingleSpeed=\"COIL COOLING DX SINGLE SPEED 1 16KBTU/HR 14.0SEER\" - Full load outlet temperature indicates a possibility of frost/freeze error continues. Outlet air temperature statistics follow:\n   *************  **   ~~~   **   This error occurred 231 total times;\n   *************  **   ~~~   **   during Warmup 0 times;\n   *************  **   ~~~   **   during Sizing 0 times.\n   *************  **   ~~~   **   Max=1.994041  Min=-1.911623\n   *************\n   *************  ** Warning ** CalcDoe2DXCoil: Coil:Cooling:DX:SingleSpeed=\"COIL COOLING DX SINGLE SPEED 2 18KBTU/HR 14.0SEER\" - Low condenser dry-bulb temperature error continues...\n   *************  **   ~~~   **   This error occurred 692 total times;\n   *************  **   ~~~   **   during Warmup 0 times;\n   *************  **   ~~~   **   during Sizing 0 times.\n   *************  **   ~~~   **   Max=-2.500000E-002 [C]  Min=-33.3 [C]\n   *************\n   *************  ** Warning ** CalcDoe2DXCoil: Coil:Cooling:DX:SingleSpeed=\"COIL COOLING DX SINGLE SPEED 3 19KBTU/HR 14.0SEER\" - Low condenser dry-bulb temperature error continues...\n   *************  **   ~~~   **   This error occurred 776 total times;\n   *************  **   ~~~   **   during Warmup 0 times;\n   *************  **   ~~~   **   during Sizing 0 times.\n   *************  **   ~~~   **   Max=-1.387779E-017 [C]  Min=-33.3 [C]\n   *************\n   *************  ** Warning ** CalcDoe2DXCoil: Coil:Cooling:DX:SingleSpeed=\"COIL COOLING DX SINGLE SPEED 2 18KBTU/HR 14.0SEER\" - Full load outlet temperature indicates a possibility of frost/freeze error continues. Outlet air temperature statistics follow:\n   *************  **   ~~~   **   This error occurred 19 total times;\n   *************  **   ~~~   **   during Warmup 0 times;\n   *************  **   ~~~   **   during Sizing 0 times.\n   *************  **   ~~~   **   Max=1.982869  Min=0.908189\n   *************\n   *************  ** Warning ** CalcDoe2DXCoil: Coil:Cooling:DX:SingleSpeed=\"COIL COOLING DX SINGLE SPEED 3 19KBTU/HR 14.0SEER\" - Full load outlet temperature indicates a possibility of frost/freeze error continues. Outlet air temperature statistics follow:\n   *************  **   ~~~   **   This error occurred 14 total times;\n   *************  **   ~~~   **   during Warmup 0 times;\n   *************  **   ~~~   **   during Sizing 0 times.\n   *************  **   ~~~   **   Max=1.986184  Min=1.182313\n   *************\n   *************\n   ************* ===== Final Error Summary =====\n   ************* The following error categories occurred.  Consider correcting or noting.\n   ************* Nominally Unused Constructions\n   ************* ..The nominally unused constructions warning is provided to alert you to potential conditions that can cause\n   ************* ..extra time during simulation. Each construction is calculated by the algorithm indicated in the HeatBalanceAlgorithm\n   ************* ..object. You may remove the constructions indicated (when you use the DisplayExtraWarnings option).\n   *************\n   ************* EnergyPlus Warmup Error Summary. During Warmup: 0 Warning; 0 Severe Errors.\n   ************* EnergyPlus Sizing Error Summary. During Sizing: 39 Warning; 0 Severe Errors.\n   ************* EnergyPlus Completed Successfully-- 4031 Warning; 0 Severe Errors; Elapsed Time=00hr 00min 31.78sec\n",
   "file_format_version" : "0.0.1",
   "file_paths" : [ "../weather", "../seeds", "../seed" ],
   "hash" : "509F79AB",
   "measure_paths" : [ "../measures" ],
   "name" : "LHS Autogenerated 944",
   "osa_id" : "4fef0e0f-5396-4c55-a6e1-2cd6803db3ab",
   "osd_id" : "f763266f-b8b9-4d72-88ae-3df27959bc45",
   "run_directory" : "./run",
   "seed_file" : "seed.osm",
   "started_at" : "20170710T192354Z",
   "steps" : [
      {
         "arguments" : {
            "__SKIP__" : false,
            "building_type" : "SmallOffice",
            "climate_zone" : "NECB HDD Method",
            "epw_file" : "CAN_SK_Saskatoon.718660_CWEC.epw",
            "template" : "NECB 2011"
         },
         "measure_dir_name" : "create_prototype_building",
         "name" : "create_prototype_building",
         "result" : {
            "completed_at" : "20170710T192447Z",
            "measure_class_name" : "CreatePrototypeBuilding",
            "measure_display_name" : "Create Prototype Building",
            "measure_name" : "create_prototype_building",
            "measure_taxonomy" : "Whole Building.Space Types",
            "measure_type" : "ModelMeasure",
            "measure_uid" : "ae90fsd7-a651-467a-bc8d-29d310b0f937",
            "measure_version_id" : "c6ec5c18-5595-459f-a082-09a19c8c869c",
            "measure_version_modified" : "20170519T182315Z",
            "measure_xml_checksum" : "057E8D9D",
            "started_at" : "20170710T192357Z",
            "stderr" : "",
            "stdout" : "[OpenStudio.Measure] <0> OSArgumentVector is deprecated, use OpenStudio::Measure::OSArgumentVector instead.\n[openstudio.EpwFile] <0> Successive data points (1985-Jan-31 to 1970-Feb-01, ending on line 753) are greater than 1 day apart in EPW file '/usr/local/bundle/bundler/gems/openstudio-standards-f448df66933d/openstudio-standards/data/weather/CAN_SK_Saskatoon.718660_CWEC.epw'. Data will be treated as typical (TMY)\n[openstudio.setFileExtension] <0> Path p, '/usr/local/bundle/bundler/gems/openstudio-standards-f448df66933d/openstudio-standards/data/weather/CAN_SK_Saskatoon.718660_CWEC.ddy', has an unexpected file extension. Was expecting 'idf'.\n[openstudio.setFileExtension] <0> Path p, '/usr/local/bundle/bundler/gems/openstudio-standards-f448df66933d/openstudio-standards/data/weather/CAN_SK_Saskatoon.718660_CWEC.ddy', has an unexpected file extension. Was expecting 'idf'.\n[openstudio.EpwFile] <0> Successive data points (1985-Jan-31 to 1970-Feb-01, ending on line 753) are greater than 1 day apart in EPW file '/usr/local/bundle/bundler/gems/openstudio-standards-f448df66933d/openstudio-standards/data/weather/CAN_SK_Saskatoon.718660_CWEC.epw'. Data will be treated as typical (TMY)\n[openstudio.weather.Model] <0> Could not find ground temperatures; will use generic temperatures, which will skew results.\n[openstudio.setFileExtension] <0> Path p, '/usr/local/bundle/bundler/gems/openstudio-standards-f448df66933d/openstudio-standards/data/weather/CAN_SK_Saskatoon.718660_CWEC.ddy', has an unexpected file extension. Was expecting 'idf'.\n[openstudio.EpwFile] <0> Successive data points (1985-Jan-31 to 1970-Feb-01, ending on line 753) are greater than 1 day apart in EPW file '/usr/local/bundle/bundler/gems/openstudio-standards-f448df66933d/openstudio-standards/data/weather/CAN_SK_Saskatoon.718660_CWEC.epw'. Data will be treated as typical (TMY)\n[openstudio.setFileExtension] <0> Path p, '/usr/local/bundle/bundler/gems/openstudio-standards-f448df66933d/openstudio-standards/data/weather/CAN_SK_Saskatoon.718660_CWEC.ddy', has an unexpected file extension. Was expecting 'idf'.\n[openstudio.setFileExtension] <0> Path p, '/usr/local/bundle/bundler/gems/openstudio-standards-f448df66933d/openstudio-standards/data/weather/CAN_SK_Saskatoon.718660_CWEC.ddy', has an unexpected file extension. Was expecting 'idf'.\n[openstudio.EpwFile] <0> Successive data points (1985-Jan-31 to 1970-Feb-01, ending on line 753) are greater than 1 day apart in EPW file '/usr/local/bundle/bundler/gems/openstudio-standards-f448df66933d/openstudio-standards/data/weather/CAN_SK_Saskatoon.718660_CWEC.epw'. Data will be treated as typical (TMY)\n[openstudio.setFileExtension] <0> Path p, '/usr/local/bundle/bundler/gems/openstudio-standards-f448df66933d/openstudio-standards/data/weather/CAN_SK_Saskatoon.718660_CWEC.ddy', has an unexpected file extension. Was expecting 'idf'.\n[openstudio.setFileExtension] <0> Path p, '/usr/local/bundle/bundler/gems/openstudio-standards-f448df66933d/openstudio-standards/data/weather/CAN_SK_Saskatoon.718660_CWEC.ddy', has an unexpected file extension. Was expecting 'idf'.\n[utilities.idf.WorkspaceObject] <0> Object of type 'Schedule:Constant' and named 'Always Off Discrete', points to an object named OnOff 1 from field 1, but that object cannot be located.\n[utilities.idf.WorkspaceObject] <0> Object of type 'Schedule:Constant' and named 'Always On Continuous', points to an object named Fractional 1 from field 1, but that object cannot be located.\n[utilities.idf.WorkspaceObject] <0> Object of type 'Schedule:Constant' and named 'Always Off Discrete', points to an object named OnOff 1 from field 1, but that object cannot be located.\n[utilities.idf.WorkspaceObject] <0> Object of type 'Schedule:Constant' and named 'Always On Continuous', points to an object named Fractional 1 from field 1, but that object cannot be located.\n[openstudio.standards.Fan] <0> For Fan Constant Volume 1, there is no greater nominal HP.  Use the efficiency of the largest motor category.\n[openstudio.standards.Fan] <0> For Fan Constant Volume 2, there is no greater nominal HP.  Use the efficiency of the largest motor category.\n[openstudio.standards.Fan] <0> For Fan Constant Volume 3, there is no greater nominal HP.  Use the efficiency of the largest motor category.\n[openstudio.standards.Fan] <0> For Fan Constant Volume 4, there is no greater nominal HP.  Use the efficiency of the largest motor category.\n[openstudio.standards.Fan] <0> For Fan Constant Volume 5, there is no greater nominal HP.  Use the efficiency of the largest motor category.\n[openstudio.EpwFile] <0> Successive data points (1985-Jan-31 to 1970-Feb-01, ending on line 753) are greater than 1 day apart in EPW file '/usr/local/bundle/bundler/gems/openstudio-standards-f448df66933d/openstudio-standards/data/weather/CAN_SK_Saskatoon.718660_CWEC.epw'. Data will be treated as typical (TMY)\n[openstudio.setFileExtension] <0> Path p, '/usr/local/bundle/bundler/gems/openstudio-standards-f448df66933d/openstudio-standards/data/weather/CAN_SK_Saskatoon.718660_CWEC.ddy', has an unexpected file extension. Was expecting 'idf'.\n[openstudio.setFileExtension] <0> Path p, '/usr/local/bundle/bundler/gems/openstudio-standards-f448df66933d/openstudio-standards/data/weather/CAN_SK_Saskatoon.718660_CWEC.ddy', has an unexpected file extension. Was expecting 'idf'.\n[openstudio.EpwFile] <0> Successive data points (1985-Jan-31 to 1970-Feb-01, ending on line 753) are greater than 1 day apart in EPW file '/usr/local/bundle/bundler/gems/openstudio-standards-f448df66933d/openstudio-standards/data/weather/CAN_SK_Saskatoon.718660_CWEC.epw'. Data will be treated as typical (TMY)\n[openstudio.setFileExtension] <0> Path p, '/usr/local/bundle/bundler/gems/openstudio-standards-f448df66933d/openstudio-standards/data/weather/CAN_SK_Saskatoon.718660_CWEC.ddy', has an unexpected file extension. Was expecting 'idf'.\n[openstudio.setFileExtension] <0> Path p, '/usr/local/bundle/bundler/gems/openstudio-standards-f448df66933d/openstudio-standards/data/weather/CAN_SK_Saskatoon.718660_CWEC.ddy', has an unexpected file extension. Was expecting 'idf'.\n[openstudio.EpwFile] <0> Successive data points (1985-Jan-31 to 1970-Feb-01, ending on line 753) are greater than 1 day apart in EPW file '/usr/local/bundle/bundler/gems/openstudio-standards-f448df66933d/openstudio-standards/data/weather/CAN_SK_Saskatoon.718660_CWEC.epw'. Data will be treated as typical (TMY)\n[openstudio.setFileExtension] <0> Path p, '/usr/local/bundle/bundler/gems/openstudio-standards-f448df66933d/openstudio-standards/data/weather/CAN_SK_Saskatoon.718660_CWEC.ddy', has an unexpected file extension. Was expecting 'idf'.\n[openstudio.setFileExtension] <0> Path p, '/usr/local/bundle/bundler/gems/openstudio-standards-f448df66933d/openstudio-standards/data/weather/CAN_SK_Saskatoon.718660_CWEC.ddy', has an unexpected file extension. Was expecting 'idf'.\n[openstudio.EpwFile] <0> Successive data points (1985-Jan-31 to 1970-Feb-01, ending on line 753) are greater than 1 day apart in EPW file '/usr/local/bundle/bundler/gems/openstudio-standards-f448df66933d/openstudio-standards/data/weather/CAN_SK_Saskatoon.718660_CWEC.epw'. Data will be treated as typical (TMY)\n[openstudio.setFileExtension] <0> Path p, '/usr/local/bundle/bundler/gems/openstudio-standards-f448df66933d/openstudio-standards/data/weather/CAN_SK_Saskatoon.718660_CWEC.ddy', has an unexpected file extension. Was expecting 'idf'.\n[openstudio.setFileExtension] <0> Path p, '/usr/local/bundle/bundler/gems/openstudio-standards-f448df66933d/openstudio-standards/data/weather/CAN_SK_Saskatoon.718660_CWEC.ddy', has an unexpected file extension. Was expecting 'idf'.\n[openstudio.EpwFile] <0> Successive data points (1985-Jan-31 to 1970-Feb-01, ending on line 753) are greater than 1 day apart in EPW file '/usr/local/bundle/bundler/gems/openstudio-standards-f448df66933d/openstudio-standards/data/weather/CAN_SK_Saskatoon.718660_CWEC.epw'. Data will be treated as typical (TMY)\n[openstudio.setFileExtension] <0> Path p, '/usr/local/bundle/bundler/gems/openstudio-standards-f448df66933d/openstudio-standards/data/weather/CAN_SK_Saskatoon.718660_CWEC.ddy', has an unexpected file extension. Was expecting 'idf'.\n[openstudio.setFileExtension] <0> Path p, '/usr/local/bundle/bundler/gems/openstudio-standards-f448df66933d/openstudio-standards/data/weather/CAN_SK_Saskatoon.718660_CWEC.ddy', has an unexpected file extension. Was expecting 'idf'.\n[openstudio.standards.Fan] <0> For Fan Constant Volume 1, there is no greater nominal HP.  Use the efficiency of the largest motor category.\n[openstudio.standards.Fan] <0> For Fan Constant Volume 2, there is no greater nominal HP.  Use the efficiency of the largest motor category.\n[openstudio.standards.Fan] <0> For Fan Constant Volume 3, there is no greater nominal HP.  Use the efficiency of the largest motor category.\n[openstudio.standards.Fan] <0> For Fan Constant Volume 4, there is no greater nominal HP.  Use the efficiency of the largest motor category.\n[openstudio.standards.Fan] <0> For Fan Constant Volume 5, there is no greater nominal HP.  Use the efficiency of the largest motor category.\n",
            "step_errors" : [],
            "step_files" : [],
            "step_info" : [
               "Started adding geometry",
               "Finished adding geometry",
               "Started adding weather file for climate zone: NECB HDD Method.",
               "Template =",
               "Setting Attic to Space Function.- undefined -",
               "Setting Core_ZN to Space Function.Office - enclosed",
               "Setting Perimeter_ZN_1 to Space Function.Office - enclosed",
               "Setting Perimeter_ZN_2 to Space Function.Office - enclosed",
               "Setting Perimeter_ZN_3 to Space Function.Office - enclosed",
               "Setting Perimeter_ZN_4 to Space Function.Office - enclosed",
               "Started applying space types (loads)",
               "Space Function - undefined - had no ventilation specification, one has been created.",
               "Space Function - undefined - had no infiltration objects, one has been created.",
               "Space Function - undefined - set infiltration to 0.0 per ft^2 exterior surface area.",
               "Space Function - undefined - set infiltration schedule to Always On.",
               "Space Function Office - enclosed had no people, one has been created.",
               "Space Function Office - enclosed set occupancy to 4.65 people/1000 ft^2.",
               "Space Function Office - enclosed had no lights, one has been created.",
               "Space Function Office - enclosed set LPD to 1.105536975 W/ft^2.",
               "Space Function Office - enclosed had no electric equipment, one has been created.",
               "Space Function Office - enclosed set electric EPD to 0.696767001 W/ft^2.",
               "Space Function Office - enclosed had no ventilation specification, one has been created.",
               "Space Function Office - enclosed set ventilation per area to 0.085 cfm/ft^2.",
               "Space Function Office - enclosed had no infiltration objects, one has been created.",
               "Space Function Office - enclosed set infiltration to 0.0 per ft^2 exterior surface area.",
               "Space Function Office - enclosed set occupancy schedule to NECB-A-Occupancy.",
               "Space Function Office - enclosed set occupant activity schedule to NECB-Activity.",
               "Space Function Office - enclosed set lighting schedule to NECB-A-Lighting.",
               "Space Function Office - enclosed set electric equipment schedule to NECB-A-Electric-Equipment.",
               "Space Function Office - enclosed set infiltration schedule to Always On.",
               "Space Function Office - enclosed set heating setpoint schedule to NECB-A-Thermostat Setpoint-Heating.",
               "Space Function Office - enclosed set cooling setpoint schedule to NECB-A-Thermostat Setpoint-Cooling.",
               "Finished applying space types (loads)",
               "For NECB 2011, no exterior wall area was found, no infiltration will be added.",
               "Started applying constructions",
               "Adding construction set: NECB 2011-NECB HDD Method-Office--is_residentialNo",
               "Adding construction Typical Insulated Exterior Mass Floor R-15.63.",
               "Adding construction Typical Insulated Exterior Mass Wall R-12.5.",
               "Adding construction Typical Insulated Metal Building Roof R-20.41.",
               "Adding construction Typical Interior Floor.",
               "Adding construction Typical Interior Wall.",
               "Adding construction Typical Interior Ceiling.",
               "Adding construction Typical Insulated Carpeted 6in Slab Floor.",
               "Adding construction U 0.55 SHGC 0.31 Dbl Ref-D Tint 6mm/6mm Air.",
               "Adding construction Typical Insulated Metal Door R-1.43.",
               "Adding construction U 0.35 SHGC 0.35 Dbl LoE (e2-.1) Tint 6mm/13mm Air.",
               "Adding construction Typical Overhead Door R-2.0.",
               "Adding construction U 0.48 SHGC 0.40 Dbl Ref-D Clr 6mm/13mm.",
               "Adding construction Typical Interior Window.",
               "Adding construction Typical Interior Door.",
               "Adding construction Typical Interior Partition.",
               "Finished applying constructions",
               "WWR NonRes = 0%; window = 0 ft2, wall = 0 ft2.",
               "WWR Res = 0%; window = 0 ft2, wall = 0 ft2.",
               "WWR Semiheated = 0%; window = 0 ft2, wall = 0 ft2.",
               "The skylight to roof ratios (SRRs) are: NonRes: 0%, Res: 0%.",
               "Started creating thermal zones",
               "Finished creating thermal zones",
               "Running simulation /mnt/openstudio/analysis_4fef0e0f-5396-4c55-a6e1-2cd6803db3ab/data_point_f763266f-b8b9-4d72-88ae-3df27959bc45/run/000_create_prototype_building/output/SmallOffice-NECB 2011-NECB HDD Method-CAN_SK_Saskatoon.718660_CWEC.epw/SR0.",
               "Finished run.",
               "Started Adding HVAC",
               "Finished adding HVAC",
               "Started Adding Service Water Heating",
               "Adding service water loop.",
               "Adding water heater.",
               "Template =",
               "Finished adding Service Water Heating",
               "Set sizing factors to 1.3 for heating and 1.3 for cooling.",
               "Running simulation /mnt/openstudio/analysis_4fef0e0f-5396-4c55-a6e1-2cd6803db3ab/data_point_f763266f-b8b9-4d72-88ae-3df27959bc45/run/000_create_prototype_building/output/SmallOffice-NECB 2011-NECB HDD Method-CAN_SK_Saskatoon.718660_CWEC.epw/SR1.",
               "Finished run.",
               "Started applying multizone vav OA sizing.",
               "Finished applying multizone vav OA sizing.",
               "Started applying prototype HVAC assumptions.",
               "For Fan Constant Volume 1: allowed_hp = 1.01HP; motor eff = 61.5%; total fan eff = 40% based on 594 cfm.",
               "For Fan Constant Volume 2: allowed_hp = 1.01HP; motor eff = 61.5%; total fan eff = 40% based on 688 cfm.",
               "For Fan Constant Volume 3: allowed_hp = 1.01HP; motor eff = 61.5%; total fan eff = 40% based on 726 cfm.",
               "For Fan Constant Volume 4: allowed_hp = 1.01HP; motor eff = 61.5%; total fan eff = 40% based on 804 cfm.",
               "For Fan Constant Volume 5: allowed_hp = 1.01HP; motor eff = 61.5%; total fan eff = 40% based on 604 cfm.",
               "Sp-Perimeter_ZN_2 Sys-3 Flr-1 Sch-A HPlcmt-east ZN NECB System 3 PSZ does not require an economizer because the total cooling capacity of 18343 Btu/hr is less than the minimum capacity of 68243 Btu/hr.",
               "Sp-Perimeter_ZN_3 Sys-3 Flr-1 Sch-A HPlcmt-north ZN NECB System 3 PSZ does not require an economizer because the total cooling capacity of 15845 Btu/hr is less than the minimum capacity of 68243 Btu/hr.",
               "Sp-Perimeter_ZN_4 Sys-3 Flr-1 Sch-A HPlcmt-west ZN NECB System 3 PSZ does not require an economizer because the total cooling capacity of 19344 Btu/hr is less than the minimum capacity of 68243 Btu/hr.",
               "Sp-Core_ZN Sys-3 Flr-1 Sch-A HPlcmt-core ZN NECB System 3 PSZ does not require an economizer because the total cooling capacity of 16088 Btu/hr is less than the minimum capacity of 68243 Btu/hr.",
               "Sp-Perimeter_ZN_1 Sys-3 Flr-1 Sch-A HPlcmt-south ZN NECB System 3 PSZ does not require an economizer because the total cooling capacity of 21437 Btu/hr is less than the minimum capacity of 68243 Btu/hr.",
               "Finished applying prototype HVAC assumptions.",
               "Started applying HVAC efficiency standards.",
               "For Sp-Core_ZN Sys-3 Flr-1 Sch-A HPlcmt-core ZN NECB System 3 PSZ, ERV not required based on 0% OA flow, design supply air flow of 604cfm, and climate zone NECB HDD Method.",
               "For Sp-Core_ZN Sys-3 Flr-1 Sch-A HPlcmt-core ZN NECB System 3 PSZ, ERV not required based on exhaust heat content.",
               "For NECB 2011 NECB HDD Method:  Sp-Core_ZN Sys-3 Flr-1 Sch-A HPlcmt-core ZN NECB System 3 PSZ: DCV is not required for any system.",
               "For Sp-Core_ZN Sys-3 Flr-1 Sch-A HPlcmt-core ZN NECB System 3 PSZ: Unoccupied fan shutoff not required because system fan HP of 0.61 HP is less than the minimum threshold of 0.75 HP.",
               "For Sp-Core_ZN Sys-3 Flr-1 Sch-A HPlcmt-core ZN NECB System 3 PSZ: Setting motorized OA damper schedule to Always On Discrete.",
               "For Sp-Perimeter_ZN_1 Sys-3 Flr-1 Sch-A HPlcmt-south ZN NECB System 3 PSZ, ERV not required based on 0% OA flow, design supply air flow of 804cfm, and climate zone NECB HDD Method.",
               "For Sp-Perimeter_ZN_1 Sys-3 Flr-1 Sch-A HPlcmt-south ZN NECB System 3 PSZ, ERV not required based on exhaust heat content.",
               "For NECB 2011 NECB HDD Method:  Sp-Perimeter_ZN_1 Sys-3 Flr-1 Sch-A HPlcmt-south ZN NECB System 3 PSZ: DCV is not required for any system.",
               "For Sp-Perimeter_ZN_1 Sys-3 Flr-1 Sch-A HPlcmt-south ZN NECB System 3 PSZ: Annual occupied hours = 2860 hr/yr, assuming a 0.15 occupancy threshold.  This schedule will be used as the HVAC operation schedule.",
               "For Sp-Perimeter_ZN_1 Sys-3 Flr-1 Sch-A HPlcmt-south ZN NECB System 3 PSZ: Setting motorized OA damper schedule to Sp-Perimeter_ZN_1 Sys-3 Flr-1 Sch-A HPlcmt-south ZN NECB System 3 PSZ Occ Sch.",
               "For Sp-Perimeter_ZN_2 Sys-3 Flr-1 Sch-A HPlcmt-east ZN NECB System 3 PSZ, ERV not required based on 0% OA flow, design supply air flow of 688cfm, and climate zone NECB HDD Method.",
               "For Sp-Perimeter_ZN_2 Sys-3 Flr-1 Sch-A HPlcmt-east ZN NECB System 3 PSZ, ERV not required based on exhaust heat content.",
               "For NECB 2011 NECB HDD Method:  Sp-Perimeter_ZN_2 Sys-3 Flr-1 Sch-A HPlcmt-east ZN NECB System 3 PSZ: DCV is not required for any system.",
               "For Sp-Perimeter_ZN_2 Sys-3 Flr-1 Sch-A HPlcmt-east ZN NECB System 3 PSZ: Unoccupied fan shutoff not required because system fan HP of 0.7 HP is less than the minimum threshold of 0.75 HP.",
               "For Sp-Perimeter_ZN_2 Sys-3 Flr-1 Sch-A HPlcmt-east ZN NECB System 3 PSZ: Setting motorized OA damper schedule to Always On Discrete.",
               "For Sp-Perimeter_ZN_3 Sys-3 Flr-1 Sch-A HPlcmt-north ZN NECB System 3 PSZ, ERV not required based on 0% OA flow, design supply air flow of 594cfm, and climate zone NECB HDD Method.",
               "For Sp-Perimeter_ZN_3 Sys-3 Flr-1 Sch-A HPlcmt-north ZN NECB System 3 PSZ, ERV not required based on exhaust heat content.",
               "For NECB 2011 NECB HDD Method:  Sp-Perimeter_ZN_3 Sys-3 Flr-1 Sch-A HPlcmt-north ZN NECB System 3 PSZ: DCV is not required for any system.",
               "For Sp-Perimeter_ZN_3 Sys-3 Flr-1 Sch-A HPlcmt-north ZN NECB System 3 PSZ: Unoccupied fan shutoff not required because system fan HP of 0.6 HP is less than the minimum threshold of 0.75 HP.",
               "For Sp-Perimeter_ZN_3 Sys-3 Flr-1 Sch-A HPlcmt-north ZN NECB System 3 PSZ: Setting motorized OA damper schedule to Always On Discrete.",
               "For Sp-Perimeter_ZN_4 Sys-3 Flr-1 Sch-A HPlcmt-west ZN NECB System 3 PSZ, ERV not required based on 0% OA flow, design supply air flow of 726cfm, and climate zone NECB HDD Method.",
               "For Sp-Perimeter_ZN_4 Sys-3 Flr-1 Sch-A HPlcmt-west ZN NECB System 3 PSZ, ERV not required based on exhaust heat content.",
               "For NECB 2011 NECB HDD Method:  Sp-Perimeter_ZN_4 Sys-3 Flr-1 Sch-A HPlcmt-west ZN NECB System 3 PSZ: DCV is not required for any system.",
               "For Sp-Perimeter_ZN_4 Sys-3 Flr-1 Sch-A HPlcmt-west ZN NECB System 3 PSZ: Unoccupied fan shutoff not required because system fan HP of 0.74 HP is less than the minimum threshold of 0.75 HP.",
               "For Sp-Perimeter_ZN_4 Sys-3 Flr-1 Sch-A HPlcmt-west ZN NECB System 3 PSZ: Setting motorized OA damper schedule to Always On Discrete.",
               "For Fan Constant Volume 1: motor nameplate = 0.3702471113238427HP, motor eff = 61.5%.",
               "For Fan Constant Volume 2: motor nameplate = 0.4286188547322943HP, motor eff = 61.5%.",
               "For Fan Constant Volume 3: motor nameplate = 0.45201102495411105HP, motor eff = 61.5%.",
               "For Fan Constant Volume 4: motor nameplate = 0.5009312037202124HP, motor eff = 61.5%.",
               "For Fan Constant Volume 5: motor nameplate = 0.37592376965862206HP, motor eff = 61.5%.",
               "For Service Water Loop Pump: brake hp = 0.0HP, motor nameplate = 0.1HP, motor eff = 70.0%.",
               "For Pump Variable Speed 1: brake hp = 0.13HP, motor nameplate = 1.0HP, motor eff = 85.5%.",
               "For NECB 2011: Coil Cooling DX Single Speed 1: AirCooled All Other Single Package Capacity = 16kBtu/hr; SEER = 14.0",
               "For NECB 2011: Coil Cooling DX Single Speed 2: AirCooled All Other Single Package Capacity = 18kBtu/hr; SEER = 14.0",
               "For NECB 2011: Coil Cooling DX Single Speed 3: AirCooled All Other Single Package Capacity = 19kBtu/hr; SEER = 14.0",
               "For NECB 2011: Coil Cooling DX Single Speed 4: AirCooled All Other Single Package Capacity = 21kBtu/hr; SEER = 14.0",
               "For NECB 2011: Coil Cooling DX Single Speed 5: AirCooled All Other Single Package Capacity = 16kBtu/hr; SEER = 14.0",
               "For NECB 2011: Primary Boiler: Gas Hot Water Capacity = 95kBtu/hr; AFUE = 0.85",
               "For NECB 2011: Secondary Boiler: Gas Hot Water Capacity = 0kBtu/hr; AFUE = 0.85",
               "For NECB 2011: 40.0gal NaturalGas Water Heater - 40kBtu/hr 0.82 Therm Eff; thermal efficiency = 0.82, skin-loss UA = 6Btu/hr",
               "Finished applying HVAC efficiency standards.",
               "Started adding daylighting controls.",
               "For Attic, daylighting control not applicable because no exterior fenestration is present.",
               "For Core_ZN, daylighting control not applicable because no exterior fenestration is present.",
               "Finished adding daylighting controls.",
               "Total Time = 49sec."
            ],
            "step_result" : "Success",
            "step_values" : [
               {
                  "name" : "building_type",
                  "value" : "SmallOffice"
               },
               {
                  "name" : "template",
                  "value" : "NECB 2011"
               },
               {
                  "name" : "climate_zone",
                  "value" : "NECB HDD Method"
               },
               {
                  "name" : "epw_file",
                  "value" : "CAN_SK_Saskatoon.718660_CWEC.epw"
               }
            ],
            "step_warnings" : [
               "[openstudio.EpwFile] Successive data points (1985-Jan-31 to 1970-Feb-01, ending on line 753) are greater than 1 day apart in EPW file '/usr/local/bundle/bundler/gems/openstudio-standards-f448df66933d/openstudio-standards/data/weather/CAN_SK_Saskatoon.718660_CWEC.epw'. Data will be treated as typical (TMY)",
               "[openstudio.EpwFile] Successive data points (1985-Jan-31 to 1970-Feb-01, ending on line 753) are greater than 1 day apart in EPW file '/usr/local/bundle/bundler/gems/openstudio-standards-f448df66933d/openstudio-standards/data/weather/CAN_SK_Saskatoon.718660_CWEC.epw'. Data will be treated as typical (TMY)",
               "[openstudio.weather.Model] Could not find ground temperatures; will use generic temperatures, which will skew results.",
               "[openstudio.EpwFile] Successive data points (1985-Jan-31 to 1970-Feb-01, ending on line 753) are greater than 1 day apart in EPW file '/usr/local/bundle/bundler/gems/openstudio-standards-f448df66933d/openstudio-standards/data/weather/CAN_SK_Saskatoon.718660_CWEC.epw'. Data will be treated as typical (TMY)",
               "[openstudio.EpwFile] Successive data points (1985-Jan-31 to 1970-Feb-01, ending on line 753) are greater than 1 day apart in EPW file '/usr/local/bundle/bundler/gems/openstudio-standards-f448df66933d/openstudio-standards/data/weather/CAN_SK_Saskatoon.718660_CWEC.epw'. Data will be treated as typical (TMY)",
               "[openstudio.standards.Fan] For Fan Constant Volume 1, there is no greater nominal HP.  Use the efficiency of the largest motor category.",
               "[openstudio.standards.Fan] For Fan Constant Volume 2, there is no greater nominal HP.  Use the efficiency of the largest motor category.",
               "[openstudio.standards.Fan] For Fan Constant Volume 3, there is no greater nominal HP.  Use the efficiency of the largest motor category.",
               "[openstudio.standards.Fan] For Fan Constant Volume 4, there is no greater nominal HP.  Use the efficiency of the largest motor category.",
               "[openstudio.standards.Fan] For Fan Constant Volume 5, there is no greater nominal HP.  Use the efficiency of the largest motor category.",
               "[openstudio.EpwFile] Successive data points (1985-Jan-31 to 1970-Feb-01, ending on line 753) are greater than 1 day apart in EPW file '/usr/local/bundle/bundler/gems/openstudio-standards-f448df66933d/openstudio-standards/data/weather/CAN_SK_Saskatoon.718660_CWEC.epw'. Data will be treated as typical (TMY)",
               "[openstudio.EpwFile] Successive data points (1985-Jan-31 to 1970-Feb-01, ending on line 753) are greater than 1 day apart in EPW file '/usr/local/bundle/bundler/gems/openstudio-standards-f448df66933d/openstudio-standards/data/weather/CAN_SK_Saskatoon.718660_CWEC.epw'. Data will be treated as typical (TMY)",
               "[openstudio.EpwFile] Successive data points (1985-Jan-31 to 1970-Feb-01, ending on line 753) are greater than 1 day apart in EPW file '/usr/local/bundle/bundler/gems/openstudio-standards-f448df66933d/openstudio-standards/data/weather/CAN_SK_Saskatoon.718660_CWEC.epw'. Data will be treated as typical (TMY)",
               "[openstudio.EpwFile] Successive data points (1985-Jan-31 to 1970-Feb-01, ending on line 753) are greater than 1 day apart in EPW file '/usr/local/bundle/bundler/gems/openstudio-standards-f448df66933d/openstudio-standards/data/weather/CAN_SK_Saskatoon.718660_CWEC.epw'. Data will be treated as typical (TMY)",
               "[openstudio.EpwFile] Successive data points (1985-Jan-31 to 1970-Feb-01, ending on line 753) are greater than 1 day apart in EPW file '/usr/local/bundle/bundler/gems/openstudio-standards-f448df66933d/openstudio-standards/data/weather/CAN_SK_Saskatoon.718660_CWEC.epw'. Data will be treated as typical (TMY)",
               "[openstudio.standards.Fan] For Fan Constant Volume 1, there is no greater nominal HP.  Use the efficiency of the largest motor category.",
               "[openstudio.standards.Fan] For Fan Constant Volume 2, there is no greater nominal HP.  Use the efficiency of the largest motor category.",
               "[openstudio.standards.Fan] For Fan Constant Volume 3, there is no greater nominal HP.  Use the efficiency of the largest motor category.",
               "[openstudio.standards.Fan] For Fan Constant Volume 4, there is no greater nominal HP.  Use the efficiency of the largest motor category.",
               "[openstudio.standards.Fan] For Fan Constant Volume 5, there is no greater nominal HP.  Use the efficiency of the largest motor category."
            ]
         }
      },
      {
         "arguments" : {
            "__SKIP__" : false
         },
         "measure_dir_name" : "view_model",
         "name" : "view_model",
         "result" : {
            "completed_at" : "20170710T192448Z",
            "measure_class_name" : "ViewModel",
            "measure_display_name" : "ViewModel",
            "measure_name" : "view_model",
            "measure_taxonomy" : "Reporting.QAQC",
            "measure_type" : "ModelMeasure",
            "measure_uid" : "f4669f10-fda5-489d-8e1c-7ca3c2d40378",
            "measure_version_id" : "f4975c5f-7c25-42a2-927b-02d99b4427ef",
            "measure_version_modified" : "20170526T150340Z",
            "measure_xml_checksum" : "1E1F8B97",
            "started_at" : "20170710T192448Z",
            "stderr" : "",
            "stdout" : "[OpenStudio.Measure] <0> OSArgumentVector is deprecated, use OpenStudio::Measure::OSArgumentVector instead.\n",
            "step_errors" : [],
            "step_files" : [
               "/mnt/openstudio/analysis_4fef0e0f-5396-4c55-a6e1-2cd6803db3ab/data_point_f763266f-b8b9-4d72-88ae-3df27959bc45/run/001_view_model/report.html",
               "/mnt/openstudio/analysis_4fef0e0f-5396-4c55-a6e1-2cd6803db3ab/data_point_f763266f-b8b9-4d72-88ae-3df27959bc45/run/001_view_model/report.json"
            ],
            "step_final_condition" : "Report written to <a href='file:////mnt/openstudio/analysis_4fef0e0f-5396-4c55-a6e1-2cd6803db3ab/data_point_f763266f-b8b9-4d72-88ae-3df27959bc45/run/001_view_model/report.html'>report.html</a>.",
            "step_info" : [ "No changes made to the model." ],
            "step_result" : "NA",
            "step_values" : [
               {
                  "name" : "view_model_html_zip",
[...]
DqPlc852stUOo/Vr28qn3O0l6l0HinmHKOXOoosWWfvgBA71326pTjXfdClONd95qU41y05pTjXrT6lONfdP1uKc91dtqU4192LW4pz7Y3x5XjX3dlbjnfdbfbleNfdjV+Od91N++V4193bX4533VcAyvH+qDOd9gsF5Xh/1LlO+/WEcrw/6lynvVwvx/ujrui0l/EL75903sKcvzPNDtlY3Cxe8kzf7WxG18NW+pZm7uucixevIxH/EkzHg6jZbbcY590W68h/uV29V0JvExr375YPBsdeLIZBeHd060ezF5fvR0Pj7e4E4F04EOH7qXyPWPtGyeNulccb4UXTUMxoyFeh50/B9n319OXaVVenIvRFNKebeJo/kMkoiB35xm+uy+ihfuczjZx0M84kGHmxH4wTUo0oFpPtc3ERhKKhF0mvxVCMB6sdmn3W7CVR0JGRIN8Q5vI/89fBc9+UX8A6Z0MRn4xjOT6Ji4vpuJ8ybW6xvzTeB5cMxf3dH3NzQzb/gjXjSz9K4lrep+dItqWbnGT8Trz+ZfNvwqZoC/rzF6bnuGeTIPIl4K/Jxzq9WTQJ8wCrMLgxo7Sg5Y8HQibuNm8Z3r1on4veeOGLkYy35nxMZ3kyDIPpRAzYjz+yf8w/v3XOLr1oPp/IBNtatt49aE0GxPGGw5fShzMS42F8yV4wl/2LNY5GowZ7vnpFNPL7ornNtz62P23l5ttaT4KQNT8nXWn/xD4nbuahOvcrP/vnIePmD0g2GcZzvI+fPzlfRDK9HR7OBq8YYoo6f+yfTbu6aOeh8L4Uufmr4T2m18vxmvfuUIa1DIZ5pKSF0Tmb6Z6IwbEsudHHdCQ/FRvKxYOeTKPLZtFnkTzS57PnWTyTRqPnOr105JVFvURxGHwRen5m1xb1FEy8frLa0nM1v7hwr1IXC1dFURYTyeq0UiQ9jCcf2RbpvDrxJGtVbopmkm76XL+20qqqdf3XvDWFbDs77I8/P7D/vPvzPTt99/7D729/Y6/f/fb7MXt18v5ED+BlMmuLW08u0VgcsChIFtLj6VUSB32WLhEj5kX9ZPHij4caiIuxlzhLldlrsXP9ySUU8TQcs4kXRuLlKPDipien/K3kUS59dp5+pjWY+Uu0JbfzLuQBf30Efapv3kpPhadmb5k/ilwW6IAO6IAO6IAO6IAO6IAO6IDOxtNZV/2QjEIxABuwARuwARuwARuwARuwARuwAZtsNms6SZKN1D0CHdABHdABHdABHdABHdABHdABnSJ09DXA0l/YZppeYAqmYAqmYAqmYAqmYAqmYAqmYAqmYLoZTHPFFFOmM3FEMAVTMAVTMAVTMAVTMAVTMAVTMAVTMN0MpkYKrCnrmaIqWIM1WIM1WIM1WIM1WIM1WIM1WIM1WIP1I7Je0BqE3k0zF+zWif14JE4vvYlwYnEbN5+9CqZhlE/jbv3OD+JqIkIvnoaCNV9uSYwckJ0ddjQYMI+lWOzGjy9ZFFwJNujk3BldDx1vMpEHijSk98ZWzg2L5nhxHM6OkOm1DW+SB764+jdF8Z08d0XS2/bG/csgbNwfdmKIcRGM4+0b4Q8vY4lxHowG+hizp/P25PiX7aPtD5civAqi2IvZqYgngZ8AHwfByB8Pn21lPa8XO1E/9Cfxz8prXuwM/OuHzcp71GAJFvMHh42+DOfjpP+ePxbhmcsbLB2Uw8bAjyYj7+65P5bn4Wyfj4L+l58aan4J6KwLLL6bJPfLcdn57F17s08z75QtPaTnesgOF2fxjMXN6fWw2fhhnWOL7cqjbZL/5GbS0oEuH/8+JeobKT/VOaq9XaejOv1ppvy3cvZUBqpbCmqnFNTdUlC7paD2SkFdPnOvt6c+AcwMdeUsPe50l1F3C6MelIK6etAnHSwvB9YtB7ZTDuxuObDdcmB75cDulQNbTpLxcrLMLSfL3HKyzC2niLnlVDHXooytC1MVWCGEYmAAqjm2ZqCaI2sGqjmuZqCaqwMzUM3FgRmo5trADFRz1jID1ZyzzEB1FwaGqJozliGq5rLAEFVzVWCIqrkoMETVXBMYomouCQxRNVcEhqilpJbuesCwBpSSW7qrAUPUUgqW7lrAELVoyVoTTimwDJA6KwaomsNqiKo5rIaomsNqiKq5FDBE1VwLGKJqLgYMUTWnLENUzSnLEFV3PWAKqzlpmcJqrghMYTWXBKawmmsCU1jNRYEprOaqwBRWc1lgCltOkukuDEyrQjlZprs0MIUtp4jpLg5MYYuWMf1XsIv8vjB7Y5vAoe63NmQOdb/PIXOo+00PmUPd3zLIHOr+zEHmcK9qh/tVOzyo2uHKSqkaj5XPNbzyyYZXPtvwyqcbXvl8wyufcHjlMw6vfMrhlc85buVzjlv9+qbyOUf7Fys6jxRzTu6bg0WWqbMXDQkc6j5FMoe6D5HMoe4zJHOoWzbIHOpWDTKHukWDzKFuzSBzqFsyyBxqL1PpPFY+12gvU+k8Vj7baC9T6TxWPt9oL1PpPFY+42gvU+k8Vj7naC9T6TxWv76pfM7RXqbSeaSYc4xe7iiyZJ29C0LsXPfpluJc90GX4lz3mZfiXLfklOJct/qU4lx3j3opznV32ZbiXHcvbinOtTfGl+Ndd2dvOd51t9mX4113N3453nU37ZfjXXdvfznedV8BKMe77psC5Xh/1KlO+72DctY0jzrXab/FUI73R13QaS/dy/FuuqT7pPMW5vzdaXbIxuJm8ZJn+m5nM7oettK3NHNf51y8gB2J+JdgOh5EzW67xTjvtlhH/svt6r0SepvQuH/HfDA49mIxDMK7o1s/mr2+fD8aGm95JwDvwoEI30/l28TaN0oed6s83ggvmoZiRkO+ED1/Crbvracv1666OhWhL6I53cTT/IFMRkHsyDd+c11GD/U7n2nkpJtxJsHIi/1gnJBqRLGYbJ+LiyAUDb1Iei2GYjxY7dDss2YviYKOjAT5hjCX/5m/FJ77vvwC1jkbivhkHMvxSVxcTMf9lGlzi/2l8Va4ZCju7/6Ymxuy+ResGV/6URLX8j49R7It3eQk43fi9S+bfxM2RVvQn78wPcc9mwSRLwF/TT7W6c2iSZgHWIXBjRmlBS1/PBAycbd5y/DuRftc9MYLX4xkvDXnYzrLk2EYTCdiwH78kf1j/vmtc3bpRfP5RCbY1rL17kFrMiCONxy+lD6ckRgP40v2grnsX6xxNBo12PPVK6KR3xfNbb71sf1pKzff1noShKz5OelK+yf2OXEzD9W5X/nZPw8ZN39AsskwnuN9/PzJ+SKS6e3wcDZ4xRBT1Plj/2za1UU7D4X3pcjNXw3vMb1ejte8d4cyrGUwzCMlLYzO2Uz/RAyOZcmNPqYj+anYUC4e9GQaXTaLPovkkT6fPc/imTQaPdfppSOvLOolisPgi9DzM7u2qKdg4vWT1Zaeq/nFhXuVuli4KoqymEhWp5Ui6WE8+ci2SOfViSdZq3JTNJN00+f6tZVWVa3rv+atKWTb2WF//PmB/efdn+/Z6bv3H35/+xt7/e6334/Zq5P3J3oAL5NZW9x6conG4oBFQbKQHk+vkjjos3SJGDEv6ieLF3881EBcjL3EWarMXoud608uoYin4ZhNvDASL0eBFzc9OeVvJY9y6bPz9DOtwcxfoi25nXchD/jrI+hUffNWeipANXvL/FFks0AHdEAHdEAHdEAHdEAHdEAHdDaezrrqh2QUigHYgA3YgA3YgA3YgA3YgA3YgA3YZLNZ00mSbKTuEeiADuiADuiADuiADuiADuiADugUoaOvAZb+wjbT9AJTMAVTMAVTMAVTMAVTMAVTMAVTMAXTzWCaK6aYMp2JI4IpmIIpmIIpmIIpmIIpmIIpmIIpmILpZjA1UmBNWc8UVcEarMEarMEarMEarMEarMEarMEarMEarB+R9YLWIPRumrlgt07sxyNxeulNhBOL27j57FUwDaN8Gnfrd34QVxMRevE0FKz5ckti5IDs7LCjwYB5LMViN358yaLgSrBBJ+fO6HroeJOJPFCkIb03tnJuWDTHi+NwdoRMr214kzzwxdW/KYrv5Lkrkt62N+5fBmHj/rATQ4yLYBxv3wh/eBlLjPNgNNDHmD2dtyfHv2wfbX+4FOFVEMVezE5FPAn8BPiV8GJ/PHy2lfW8XuxE/dCfxD8rr3mxM/CvHzYr71GDJVjMHxw2+jKcj5P+e/5YhGeu22DpoBw2Bn40GXl3z/2xPA9n+3wU9L/81FDzS0BnXWDx3SS5X47Lzmfv2pt9mnmnbOkhPddDdrg4i2csbk6vh83GD+scW2xXHm2T/Cc3k5YOdPn49ylR30j5qc5R5Z30DLC+nH7kiU8ztb+V86YykFwypA4Z0i4ZUpcMqUeGtEeGtE+GdECGtHL4piUUXZRzujDndHHO6QKd00U6pwt1ThfrnC7YOV20u3TR7hLO6XTR7tJFu2sY7evCS5oVMBQDA6CMsTIDyhgpM6CMcTIDypgTzIAyZgQzoIz5wAwoYzYwA8qYC8yAsgqfIRJZbGeVPUMksujOKnqGSGTxnVXyDJHIIjyr4BkikcV4VrkzRKKbv8liPKvWGSKZxPia8IVmmZPaGAZIGcNkiJQxTIZIGcNkiJQxFRgiZUwFhkgZU4EhUsZUYIiUMRUYImXVO1MouijPqnimUHRxnlXzTKHoIj2r6plC0cV6Vt0zhaKL9qzKZwpFOKfTRXtW8TOFyo12HEaPw+jnQBq34TD6tYbD6HVo4TB6HEZfpOEwetlwGD0Oo08bDqPPvhKH0ecDyIbD6DfjzEbQAR3QAR3QAR3QAR3QAR3QAZ2Np/PEjnIEG7ABG7ABG7ABG7ABG7ABG7DZHDZP68xG0AEd0AEd0AEd0AEd0AEd0AGdJ0XnEcXZjvqxf+3Hd6/FtRix5r8hz/YU5dnmD2kzlNg6G6DE1qlMia3ttLskQmxWQB0qoF0qoC4VUI8KaI8KaJ8K6IAKaOW9fDskstjmZMHNyaKbk4U3J4tvThbgnCzCOVmIc7IYd8li3KWbv8li3CWLcdcsxvUV11axiguu2eCoR6m43JoNjnoWKC62ZoOjngGKS63Z4Kiz30JozQqIKqIzypuFypoVEFVQZ9Q2C4k1KyCquM4obBb6alYzI1VkZ1Q1C3E1KyCqyM4oacWV1VZxLITVrIDUQ2Qhq2YFpE5+C1E1KyB18ltIqlkBqZPfRlDNDokstjMqm42amh0SWXhnFDcbKTU7JLIIz6hvNjpqdnMlWYxnlDgbETU7JLIYz6hyUFCDghoU1NYYQkFNNiioQUENCmoZDQpqUFAz6hUU1Fb8G1wPBbXlBgW1+1bChq0nJjQAOqADOqADOqADOqADOqADOqCz8XSemP4A2IAN2IAN2IAN2IAN2IAN2IDN5rD5bnQPQAd0QAd0QAd0QAd0QAd0QAd0ivt7BAU1CKY9KcG00/6lGEyTUZavQ0UiZry9GbJpuxsgm7ZbmWxaL30ptKjEDRVQhwpolwqoSwXUowLaowLapwI6oAJaefveDokstjlZcHOy6OZk4c3J4puTBTgni3BOFuKcLMZdshh36eZvshh3yWLcNYtxfdm0Vazismk2OOpRKi6bZoOjngWKy6bZ4KhngOKyaTY46uy3kE2zAqKK6IzyZiGbZgVEFdQZtc1CNs0KiCquMwqbhWya1cxIFdkZVc1CNs0KiCqyM0pacdm0VRwL2TQrIPUQWcimWQGpk99CNs0KSJ38FrJpVkDq5LeRTbNDIovtjMpmI5tmh0QW3hnFzUY2zQ6JLMIz6puNbJrdXEkW4xklzkY2zQ6JLMYzqhxk0yCbBtm0NYaQTZMNsmmQTYNsWkaDbBpk04x6Bdm0Ff8G10M2bblBNu2+lbBL64mpC4AO6IAO6IAO6IAO6IAO6IAO6Gw8nScmOgA2YAM2YAM2YAM2YAM2YAM2YLM5bL4bsQPQAR3QAR3QAR3QAR3QAR3QAZ3i/iCbNm+QTbuXTeObIZvW3QDZtG5lsmltxyVRTbPB6RDh7BLhdIlwekQ4e0Q4+0Q4B0Q4Ky/dWwFRRTSnCmlOFdOcKqg5VVRzqrDmVHHNqQKbU0W2SxXZLtlcTRXZLlVku0aRrS+PtgJVXB3NAkY5QsW10SxglHlfXBnNAkaZ88V10SxglPluoYpmg0MUx+oyZiGJZoNDFMrqGmahh2aDQxTN6gJmIYZmMw8SxbO6elkoodngEMWzunQVl0FbgbFQQbPBUQ6PhQaaDY4y3S0U0GxwlOluoX9mg6NMdxv1MysgqohWVzAb6TMrIKqgVhcxG90zKyCquFbXMRvRM6uZkSqy1aXMRvHMCogqstXVDHJnkDuD3NkaQ8idyQa5M8idQe4so0HuDHJnRr2C3NmKf4PrIXe23CB3dt9K2F31xFQBQAd0QAd0QAd0QAd0QAd0QAd0Np7OExMLABuwARuwARuwARuwARuwARuw2Rw2341IAeiADuiADuiADuiADuiADuiATnF/kDubN8id3cuduZshd9bbALmzXoVyZ+0ukd6ZBVCHCmiXCqhLBdSjAtqjAtqnAjqgAvrmdXsbJLLY5mTBzcmim5OFNyeLb04W4JwswjlZiHOyGHfJYtylm7/JYtwli3HXLMZNZNCWsWx00IrjqEfJRgmtOI56FrDRQiuOo54BbNTQiuOos99KD80CiCqiM8qblSSaBRBVUGfUNitVNAsgqrjOKGxWwmgWMyNVZGdUNSttNAsgqsjOKGk28mjLOFb6aBZA6iGyUkizAFInv5VGmgWQOvmtVNIsgNTJb6eTZoNEFtsZlc1OKs0GiSy8M4qbnVqaDRJZhGfUNzvBNJu5kizGM0qcnWaaDRJZjGdUOcimQTYNsmlrDCGbJhtk0yCbBtm0jAbZNMimGfUKsmkr/g2uh2zacoNs2n0rYZfWE1MXAB3QAR3QAR3QAR3QAR3QAR3Q2Xg6T0x0AGzABmzABmzABmzABmzABmzAZnPYfDdiB6ADOqADOqADOqADOqADOqADOsX9QTZt3iCbdi+b1tkM2bS9DZBN26tMNq2XvhRaVOKGCqhDBbRLBdSlAupRAe1RAe1TAR1QAa28fW+HRBbbnCy4OVl0c7Lw5mTxzckCnJNFOCcLcU4W4y5ZjLt08zdZjLtkMe6axbi+bNoqVnHZNBsc9SgVl02zwVHPAsVl02xw1DNAcdk0Gxx19lvIplkBUUV0RnmzkE2zAqIK6ozaZiGbZgVEFdcZhc1CNs1qZqSK7IyqZiGbZgVEFdkZJa24bNoqjoVsmhWQeogsZNOsgNTJbyGbZgWkTn4L2TQrIHXy28im2SGRxXZGZbORTbNDIgvvjOJmI5tmh0QW4Rn1zUY2zW6uJIvxjBJnI5tmh0QW4xlVDrJpkE2DbNoaQ8imyQbZNMimQTYto0E2DbJpRr2CbNqKf4PrIZu23CCbdt9K2KX1xNQFQAd0QAd0QAd0QAd0QAd0QAd0Np7OExMdABuwARuwARuwARuwARuwARuw2Rw2343YAeiADuiADuiADuiADuiADuiATnF/kE2bN8im3cum7W6GbNr+Bsim7Vcmm9Z2XBLVNBucDhHOLhFOlwinR4SzR4SzT4RzQISz8tK9FRBVRHOqkOZUMc2pgppTRTWnCmtOFdecKrA5VWS7VJHtks3VVJHtUkW2axTZ+vJoK1DF1dEsYJQjVFwbzQJGmffFldEsYJQ5X1wXzQJGme8Wqmg2OERxrC5jFpJoNjhEoayuYRZ6aDY4RNGsLmAWYmg28yBRPKurl4USmg0OUTyrS1dxGbQVGAsVNBsc5fBYaKDZ4CjT3UIBzQZHme4W+mc2OMp0t1E/swKiimh1BbORPrMCogpqdRGz0T2zAqKKa3UdsxE9s5oZqSJbXcpsFM+sgKgiW13NIHcGuTPIna0xhNyZbJA7g9wZ5M4yGuTOIHdm1CvIna34N7gecmfLDXJn962E3VVPTBUAdEAHdEAHdEAHdEAHdEAHdEBn4+k8MbEAsAEbsAEbsAEbsAEbsAEbsAGbzWHz3YgUgA7ogA7ogA7ogA7ogA7ogA7oFPcHubN5g9zZvdxZdzPkzg42QO7soEK5s3aXSO/MAqhDBbRLBdSlAupRAe1RAe1TAR1QAX3zur0NEllsc7Lg5mTRzcnCm5PFNycLcE4W4ZwsxDlZjLtkMe7Szd9kMe6SxbhrFuMmMmjLWDY6aMVx1KNko4RWHEc9C9hooRXHUc8ANmpoxXHU2W+lh2YBRBXRGeXNShLNAogqqDNqm5UqmgUQVVxnFDYrYTSLmZEqsjOqmpU2mgUQVWRnlDQbebRlHCt9NAsg9RBZKaRZAKmT30ojzQJInfxWKmkWQOrkt9NJs0Eii+2MymYnlWaDRBbeGcXNTi3NBokswjPqm51gms1cSRbjGSXOTjPNBoksxjOqHGTTIJsG2bQ1hpBNkw2yaZBNg2xaRoNsGmTTjHoF2bQV/wbXQzZtuUE27b6VsEvriakLgA7ogA7ogA7ogA7ogA7ogA7obDydJyY6ADZgAzZgAzZgAzZgAzZgAzZgszlsvhuxA9ABHdABHdABHdABHdABHdABneL+IJs2b5BNu5dN622EbFqn/fRl0xKOVcmm9dKXQotK3FABdaiAdqmAulRAPSqgPSqgfSqgAyqglbfv7ZDIYpuTBTcni25OFt6cLL45WYBzsgjnZCHOyWLcJYtxl27+JotxlyzGXbMY15dNW8UqLptmg6MepeKyaTY46lmguGyaDY56Bigum2aDo85+C9k0KyCqiM4obxayaVZAVEGdUdssZNOsgKjiOqOwWcimWc2MVJGdUdUsZNOsgKgiO6OkFZdNW8WxkE2zAlIPkYVsmhWQOvktZNOsgNTJbyGbZgWkTn4b2TQ7JLLYzqhsNrJpdkhk4Z1R3Gxk0+yQyCI8o77ZyKbZzZVkMZ5R4mxk0+yQyGI8o8pBNg2yaZBNW2MI2TTZIJsG2TTIpmU0yKZBNs2oV5BNW/FvcD1k05YbZNPuWwm7tJ6YugDogA7ogA7ogA7ogA7ogA7ogM7G03liogNgAzZgAzZgAzZgAzZgAzZgAzabw+a7ETsAHdABHdABHdABHdABHdABHdAp7g+yafMG2bR72bS9zZBN4xsgm8Yrk01rOy6JapoNTocIZ5cIp0uE0yPC2SPC2SfCOSDCWXnp3gqIKqI5VUhzqpjmVEHNqaKaU4U1p4prThXYnCqyXarIdsnmaqrIdqki2zWKbH15tBWo4upoFjDKESqujWYBo8z74spoFjDKnC+ui2YBo8x3C1U0GxyiOFaXMQtJNBscolBW1zALPTQbHKJoVhcwCzE0m3mQKJ7V1ctCCc0Ghyie1aWruAzaCoyFCpoNjnJ4LDTQbHCU6W6hgGaDo0x3C/0zGxxlutuon1kBUUW0uoLZSJ9ZAVEFtbqI2eieWQFRxbW6jtmInlnNjFSRrS5lNopnVkBUka2uZpA7g9wZ5M7WGELuTDbInUHuDHJnGQ1yZ5A7M+oV5M5W/BtcD7mz5Qa5s/tWwu6qJ6YKADqgAzqgAzqgAzqgAzqgAzqgs/F0nphYANiADdiADdiADdiADdiADdiAzeaw+W5ECkAHdEAHdEAHdEAHdEAHdEAHdIr7g9zZvEHubCF31tkMtTN3A9TO3ArVztpdIrkzC6AOFdAuFVCXCqhHBbRHBbRPBXRABfTN2/Y2SGSxzcmCm5NFNycLb04W35wswDlZhHOyEOdkMe6SxbhLN3+TxbhLFuOuWYybqKAtY9nIoBXHUY+SjRBacRz1LGAjhVYcRz0D2IihFcdRZ7+VHJoFEFVEZ5Q3K0U0CyCqoM6obVaiaBZAVHGdUdisdNEsZkaqyM6oalbSaBZAVJGdUdJs1NGWcazk0SyA1ENkJZBmAaROfiuJNAsgdfJbiaRZAKmT304mzQaJLLYzKpudUpoNEll4ZxQ3O7E0GySyCM+ob3Z6aTZzJVmMZ5Q4O8k0GySyGM+oclBNg2oaVNPWGEI1TTaopkE1DappGQ2qaVBNM+oVVNNW/BtcD9W05QbVtPtWwiatJyYuADqgAzqgAzqgAzqgAzqgAzqgs/F0npjmANiADdiADdiADdiADdiADdiAzeaw+W60DkAHdEAHdEAHdEAHdEAHdEAHdIr7g2ravEE1baGatrsZqmmdDVBN61SmmtZL3wktqnBDBdShAtqlAupSAfWogPaogPapgA6ogFZevrdDIottThbcnCy6OVl4c7L45mQBzskinJOFOCeLcZcsxl26+Zssxl2yGHfNYlxfNW0Vq7hqmg2OepSKq6bZ4KhngeKqaTY46hmguGqaDY46+y1U06yAqCI6o7xZqKZZAVEFdUZts1BNswKiiuuMwmahmmY1M1JFdkZVs1BNswKiiuyMklZcNW0Vx0I1zQpIPUQWqmlWQOrkt1BNswJSJ7+FapoVkDr5bVTT7JDIYjujstmoptkhkYV3RnGzUU2zQyKL8Iz6ZqOaZjdXksV4RomzUU2zQyKL8YwqB9U0qKZBNW2NIVTTZINqGlTToJqW0aCaBtU0o15BNW3Fv8H1UE1bblBNu28lbNJ6YuICoAM6oAM6oAM6oAM6oAM6oAM6G0/niWkOgA3YgA3YgA3YgA3YgA3YgA3YbA6b70brAHRAB3RAB3RAB3RAB3RAB3RAp7g/qKbNG1TTFqpp3c1QTdvdANW03cpU09qOSyKaZoPTIcLZJcLpEuH0iHD2iHD2iXAOiHBW3rm3AqKKaE4V0pwqpjlVUHOqqOZUYc2p4ppTBTanimyXKrJdsrmaKrJdqsh2jSJbXx1tBaq4OJoFjHKEikujWcAo8764MJoFjDLni8uiWcAo891CFM0GhyiO1WXMQhHNBocolNU1zEIOzQaHKJrVBcxCC81mHiSKZ3X1shBCs8Ehimd16SqugrYCYyGCZoOjHB4LCTQbHGW6Wwig2eAo091C/swGR5nuNuJnVkBUEa2uYDbKZ1ZAVEGtLmI2smdWQFRxra5jNppnVjMjVWSrS5mN4JkVEFVkq6sZ1M6gdga1szWGUDuTDWpnUDuD2llGg9oZ1M6MegW1sxX/BtdD7Wy5Qe3svpWwueqJiQKADuiADuiADuiADuiADuiADuhsPJ0nphUANmADNmADNmADNmADNmADNmCzOWy+G40C0AEd0AEd0AEd0AEd0AEd0AGd4v6gdjZvUDtbqJ31NkPtrLsBamfdCtXO2l0iuTMLoA4V0C4VUJcKqEcFtEcFtE8FdEAF9M3b9jZIZLHNyYKbk0U3JwtvThbfnCzAOVmEc7IQ52Qx7pLFuEs3f5PFuEsW465ZjJuooC1j2cigFcdRj5KNEFpxHPUsYCOFVhxHPQPYiKEVx1Fnv5UcmgUQVURnlDcrRTQLIKqgzqhtVqJoFkBUcZ1R2Kx00SxmRqrIzqhqVtJoFkBUkZ1R0mzU0ZZxrOTRLIDUQ2QlkGYBpE5+K4k0CyB18luJpFkAqZPfTibNBokstjMqm51Smg0SWXhnFDc7sTQbJLIIz6hvdnppNnMlWYxnlDg7yTQbJLIYz6hyUE2DahpU09YYQjVNNqimQTUNqmkZDappUE0z6hVU01b8G1wP1bTlBtW0+1bCJq0nJi4AOqADOqADOqADOqADOqADOqCz8XSemOYA2IAN2IAN2IAN2IAN2IAN2IDN5rD5brQOQAd0QAd0QAd0QAd0QAd0QAd0ivuDatq8QTVtoZq2txmqab0NUE3rVaaa1kvfCS2qcEMF1KEC2qUC6lIB9aiA9qiA9qmADqiAVl6+t0Mii21OFtycLLo5WXhzsvjmZAHOySKck4U4J4txlyzGXbr5myzGXbIYd81iXF81bRWruGqaDY56lIqrptngqGeB4qppNjjqGaC4apoNjjr7LVTTrICoIjqjvFmoplkBUQV1Rm2zUE2zAqKK64zCZqGaZjUzUkV2RlWzUE2zAqKK7IySVlw1bRXHQjXNCkg9RBaqaVZA6uS3UE2zAlInv4VqmhWQOvltVNPskMhiO6Oy2aim2SGRhXdGcbNRTbNDIovwjPpmo5pmN1eSxXhGibNRTbNDIovxjCoH1TSopkE1bY0hVNNkg2oaVNOgmpbRoJoG1TSjXkE1bcW/wfVQTVtuUE27byVs0npi4gKgAzqgAzqgAzqgAzqgAzqgAzobT+eJaQ6ADdiADdiADdiADdiADdiADdhsDpvvRusAdEAHdEAHdEAHdEAHdEAHdECnuD+ops0bVNMWqmn7m6GatrcBqml7lammtR2XRDTNBqdDhLNLhNMlwukR4ewR4ewT4RwQ4ay8c28FRBXRnCqkOVVMc6qg5lRRzanCmlPFNacKbE4V2S5VZLtkczVVZLtUke0aRba+OtoKVHFxNAsY5QgVl0azgFHmfXFhNAsYZc4Xl0WzgFHmu4Uomg0OURyry5iFIpoNDlEoq2uYhRyaDQ5RNKsLmIUWms08SBTP6uplIYRmg0MUz+rSVVwFbQXGQgTNBkc5PBYSaDY4ynS3EECzwVGmu4X8mQ2OMt1txM+sgKgiWl3BbJTPrICoglpdxGxkz6yAqOJaXcdsNM+sZkaqyFaXMhvBMysgqshWVzOonUHtDGpnawyhdiYb1M6gdga1s4wGtTOonRn1CmpnK/4Nrofa2XKD2tl9K2Fz1RMTBQAd0AEd0AEd0AEd0AEd0AEd0Nl4Ok9MKwBswAZswAZswAZswAZswAZswGZz2Hw3GgWgAzqgAzqgAzqgAzqgAzqgAzrF/UHtbN6gdrZQOzvYDLWz/Q1QO9uvTO2M77ad9lLjuyTiZ4SwnXJgd8uB7ZYD2ysHdq8c2P1yYA/KgV15158St6Q84yUlGi8p03hJqcZLyjVeUrLxkrKNl5RuvKR8c0vKN7esulZSvrkl5Ztrk2/6qnJZyMVF5uhQdUe3uAQdHaruTFZcoI4OVXcWKy5fR4eqO4NZiNsRwpaTXdrLBQslPELYchJMe61gIZtHCFtOjmkvFCw09girQjlZpr1KsBDkI4QtJ8u0lwjF1fuyUC3E/AhhdYfWQuqPEFZ3ArMQAiSE1Z3ALGQCCWF1JzAbEUFK3JLyTHulYKM4SIlbUqppLxZs5AkpcUvKNu31go2WIWWdKCnftJcMNsKHlLgl5Zv2qgEqiVBJhEriGkOoJMoGlUSoJEIlMaNBJREqiUa9gkriin+D66GSuNygknjfStiU+cTEREAHdEAHdEAHdEAHdEAHdEAHdDaezhPTGAEbsAEbsAEbsAEbsAEbsAEbsNkcNt+NtgnogA7ogA7ogA7ogA7ogA7ogE5xf4+gkvhBXE1E6MXTULDmyy2IJj4t0UQRXvt9wf7tych7HQQTJh+Y3Oe82365GQKKBxsgoHhQnYCi/HdRpSYinA4Rzi4RTpcIp0eEs0eEs0+Ec0CEsyowYANEFdGcKqQ5VUxzqqDmVFHNqcKaU8U1pwpsThXZLlVku2RzNVVku1SR7RpFtoGw3zKUhZJfcRjlCFlo9RWHUea9hRpfcRhlzlvo7RWHUea7jaKeBQ5RHKvLmI1IngUOUSira5iN7p0FDlE0qwuYjZSdxTxIFM/q6mWjTmeBQxTP6tJlITi3DGOjMGeBoxweGw05CxxlutuoxFngKNPdRgfOAkeZ7lZKbzZAVBGtrmBW4m02QFRBrS5iVnpsNkBUca2uY1YSazYzI1Vkq0uZlWqaDRBVZKur2RrQH6EfhH58xzjbZs3T6XhLSlL1tv/bG2+3+Xb6719Ff7vDVWWuvfKH3tHR7u7BAYELt3wXnfJd7Jbvolu+i175LvbKd7FfvouD8l2sVPayfFSQ37yCBOcVZDivIMV5BTnOK0hyXkGW8wrSnFeQ524Fee5WUccryHO3gjx3i+W5m/rwYpWPtt6yqtNx3f0egQv10yBzoX4YZC7Uz4LMhXrKJXOhnnHJXKgnXDIX6vmWzIV6uiVzkbGsovNRQX5nLKvofFSQ4RnLKjofFeR4xrKKzkcFWZ6xrKLzUUGeZyyr6HxUUccryPOMZRWdj2J53pE+Xoa+wod7oLes4nxvr9MhcKF+GmQu1A+DzIX6WZC5UE+5ZC7UMy6ZC/WES+ZCPd+SuVDvjSJzkbEhkM6HekcVnQ/1Zis6H+p9WHQ+1Fu06Hyo9yXS+VBvWaTzod7NSOdDvdGRzkcFeZ6xrKLzUUUdr6CQZyyr6HwUK+W70seHy6nKx77esuogad1fCFyonwaZC/XDIHOhfhZkLtTLKjIX6mUVmQv1sorMhXpZReZCPd2SuchYVtH5UC+r6Hyol1V0PtTLKjof6mUVnQ/1sorOh3pZRedDvayi86FeVtH5qCDPM5ZVdD6qqOMVFPKMZRWdj2KlvCt9/FsMVD729JZVv/56fLy3R+BC/TTIXKgfBpkL9bMgc6FeVpG5UC+ryFyol1VkLtTLKjIX6umWzEXGsorOh3pZRedDvayi86FeVtH5UC+r6Hyol1V0PtTLKjof6mUVnQ/1sorORwV5nrGsovNRRR2voJBnLKvofBQr5b106TYVKh89vWXV8XGvR+JC/TTIXKgfBpkL9bMgc6FeVpG5UC+ryFyol1VkLtTLKjIX6umWzEXGsorOh3pZRedDvayi86FeVtH5UC+r6Hyol1V0PtTLKjof6mUVnQ/1sorORwV5nrGsovNRRR2voJBnLKvofBQr5XvSx5tAtS3e7eotq/b3XbfbJXChfhpkLtQPg8yF+lmQuVAvq8hcqJdVZC7UyyoyF+plFZmLLN0pIheZYmtUPrLUqqh8ZAlZUfnI0rii8pElf0XlI0vzjcpHlhwclY8spTgqH1kiclQ+KsjzjGUVnY8q6ngFhTxjWUXnI7+Uf9JReJ1rMrNDNhY3CwHZVDe2GV0PW6kCbK5U7ELYORLxL8F0PIia3XaLcd5tsY78l9vVk5u9TWjci1IPBsdeLIZBeHd060czWeT7/muoRycA78KBCN9PpUqx9o2Sx90qjzfCi6ahmNGQQsvzcS9ZnhtmmGGGGWaYYYYZZphhhhlmmGGGGWaYYYYZZphhhhlmmGGGGWaYYYYZZphhhhlmmGGGGWaYYYYZZphhhhlmmGGGGWaYYYYZ5lqZ75zgWoShPxBvPPliLXfalu+ryldjo9VXY09F6Ito/npto7V4gXgyCmJn5I9F7iuy0UPv6ea/WRs56dHzk2DkxX4wTkg1olhMts/FRRCKht6bz6/FUIwH/7+9s21qG1fD8PfzK7TemeLMJiZOeG+zOzSEtjNt6QCdnS3DME6sJAbHzlg2kOnw34/k2GxScCP5pW3OufUBqCXduiQ9j6Qi52G5Q/Nn+k6zTtrik8tN8UFm8UVz6TAUYCukU1njakTDnheK8eFNDCNvEJPqNfJ1hURKSB9rX6z8LLdIzpDo4dhhBotnRa4hkRYqGXz8etZgrP8LrKqW4ouPjnP2RPdq6jNHCB7xxzK9SZOQeYYq8O/UkFIsx7Op8IeGWVesnabrvBWHDnWFvenJmM79ZBT40ZTa5MUL8lvy/N64Glss+fy7cLDaYu7s2Vw+IIY1Gh2LNgyXeqNwTF6RFvmLaIeuq5GD5RLMdQZUb5i1i+ZlbaW/PemJHxD9mnel+ZJc82YSU03aFc/+4CuO+gSJJMw40bu4vjRu6Ix0Op354OVTjFWTab9W7Wqa+gG1bvJUflCso1pejFfSu44wa2EMiaXEgRyMK4sxZ+RRuytCRLCLeCQv8w1lOtHTiI31vHPBp/RgPp/5Pcl1D2R6aYiSeVthYeDfULl25mXztuRPrYETzuSaSgrn7lXcRNpUXpV0IVleVvK4h/LiI1LqzssLD2kQU1VNxd3kWR/q8a4qVf5h1ZlCpM1N8unzOfnn5PMpOTs5PX/38Q15f/LmXZe87Z325ASO+apN7y1xRCOhT5gfhMSLJtwOBiQOacKIxQb88OJ4IwnFdOyFzsLObNVJX35xCWgYBR6ZWgGjx65vhbollvwan8qFZ/34mdRgrj6iLTSbdGGV8EO1kV4ez5+xu8fOrm/YdGhFbkimgc/XMLpRJxu/7+11u73eRsWBZ4ADHOAABzjAAQ5wgAMc4ADnfxOHsGjC/wtMbCoeEtuaCaKA2qABDWhAAxrQgAY0oAENaEADmu/T3MWvZn1D03cjChzgAAc4wAEOcIADHOAABzjAyYPz+HcDTfF3A8+irL8b2DbjG7bDw62t/X2QghSkIAUpSEEKUpCCFKQgBSlIQboepK2Y1AqzSJsxabvdau3tgBSkIAUpSEEKUpCCFKQgBSlIQQrS9SBtC9LjwMkgbe3HpKa5u9tugxSkIAUpSEEKUpCCFKQgBSlIQQrS9SDdEqTn4yiLdC8m3edp+zVIQQpSkIIUpCAFKUhBClKQghSkIF0P0m1B+je1s0h3Y9Kjo253dxekIAUpSEEKUpCCFKQgBSlIQQpSkK4H6U78m4mIZpHuxKTd7s4OSEEKUpCCFKQgBSlIQQpSkIIUpCBdF9JdQfrBz4os2NqOSff2Wq3tbZCCFKQgBSlIQQpSkIIUpCAFKUhB+sNIUxQ7sO70lWL3RuiELj0bW1NqhPQ+1Dfe+lHAVmPMntY8cibUY47vuZTFCiskNjfJoW0Ti8RK5M4Jx4T5E0rs9oqa7HZkWNMp9WxdE21rtRUV0mRYYRjo2r1WJztNxUozXqklX4mFM5fO8RqWNxj7Aa+vuXSoQJtoDH0vbNxRZzQOhUbfd215jfncnE0bn2jAJyikwdWXj1cmOZuxRpscu0GD/zwYNw7J20/uYBI2mB/xifjykXzsdV+LYiGdkDb5dPaFnAwGouxG7XtT+2qTDQJnGv6ZWebVpu3cPp+dWSdbjGsRx+5oA2H3XT5UluPxTm41NRKPX0ezHTZ1rdmB47k8q9F3/cHNSy2bj4vOu0DC2ZTXF0O4eW3dWvOn360p0q0VCBMlHWI7k6lLDY/end2OdO33p4x1stVsxl9WupyQta3Q4roXXzXX6lNXO9BsOrQiNyTTwB86LtXq85yre+3ANJp17dZyI6od7Owb+wtpb7+uDcQ6xRX40tPt9nraQ11KtVWJarsS1a1KVLcrUd2pRHW3EtW9SlT3K1E1m9XIVuNdZjXuZVbjX2Y1DmZW42FmNS5mVuNjZjVOZlbjZa1qvKxV0R5WjZe1qvGyVgEvIyyaTJb+9HeOE0JAbQVRybFVE5UcWTVRyXFVE5Vcu9REJVcuNVHJdUtNVHLVUhOVXLPURGUPBoqqlfiU7LFAUbUSr5I9FCiqVuJXskcCRdVKPEv2QKCoWolvyR4HFFWr2a8q8S3Zs4Cial7funO8sOgxoC8KyKtKDquiquSwKqpKDquiquSSpagquWQpqkouWYqqkkuWoqrkkqWoKnseUJWtxrtkTwSqstX4l+yZQFW2Gg+TPRWoylbjY7LnAlXZarxM9mSgKlvRHlaNl8keDlRllbzsUubCIblPJB3i0bv0PiO+xtDZ7ageX0isvLlILyUZDV/7kWczfbtZJ6a5XSdt8VNrW+72455jPN612nbXCunID2aH9w6bX+o9DoXEzScXOAlsGpxG4o5NuqLgmC1zfKAWiwI6xxDXhMkUFL3Lje+Rlps6o4FDWYLLW0omZOr6oSEut1Y2yZ7r92pSZsR2N/VdK3R8j0NpLKTTRp8O/YBqcpb0no6oZy93aP5M3+FW0BaWIC7DTPEluSpdeYucyhpXIxr2vFCMD29iGHmDmFSvka8Sd6WCkD7WvljpGyI5Q6KHY4dxuxb15BoSaaGSwcevZw3G+r/AqmopfnI3mOheTX3mCMEj/limN2kSMs9QBf6dGlKK5Xg2FY7bMOuKtdN0nbfi0KGusDc9GdO5n4wCP5pSm7x4QX5Lnt8bV2OLJeuJcLDaYu7s2Vw+IIY1Gh2LNgyXeqNwTF6RFvmLaIeuq5GD5RLMdQZUb5i1i+ZlbaW/PemJHxD9mnel+ZJc82YSU03aFc/+6BBTfYJEEmac6F1cXxo3lC9vnc588PIpxqrJtF+rdjVN/YBaN3kqPyjWUS0vxivpXUeYtTCGxFLijdG4mr8HRO34TSB2EY/kZb6hTCd6GrGxnncu+JQezOczvye57oFMLw1RMm8rLAz8GyrXzrxs3pb8qTVwwplcU0nh3L2Km0ibyquSLiTLy0oe91BefERK3Xl54SENYqqqqbibPOtDPd5Vpco/rDpTiLS5ST59Pif/nHw+JWcnp+fvPr4h70/evOuSt73TnpzAMV+16b0ljmgk9Anz+UHaiybcDgYkPiIyYrEBP7w43khCMR17obOwM1t10pdfXAIaRoFHplbA6LHrW6FuiSW/xqdy4Vk/fiY1mKuPaAvNJl1YJfzwE97X/OYCNnkpU1yo/pTXR4EDHOAABzjAAQ5wgAMc4ABn7XGevuAiiAJqgwY0oAENaEADGtCABjSgAQ1ovk/z5JVAQSNe8QMOcIADHOAABzjAAQ5wgAMc4PzEKInndDKlgRVGASX6cQ1xEn+pOIl/W8Li3tL42+Gk71AvJGLKRNxDakd8/Btkt3m8HiEQzTUIgWj+sBCI8QdP84ZgKkmnXZLOVkk62yXp7JSks1uSzl5JOvsl6SzFFigkVJZFm2WZtFmWTZtlGbVZllWbZZm1WZZdm2UZtlmWZbfKsuxWaWt1WZbdKsuyW0qWLR+yb0kqf5C+AjKZI5Q/EF8BmUy/zx9sr4BMps/nD6hXQCbT3wsEzSuiU5IdZ29jBULhFdEpyZSz97ACAe6K6JRkzdkbWIGwdUXWwZLsOXv3KhCMrohOSfacvXXlDzG3JFMgqFwRnczhKRA4rohOprsXCA5XRCfT3QsEgCuik+nuRYK8FRIqy6Kzd7AiodsKCZVl1NmbWJGAbIWEyrLr7H2sSJi1QitjWZadvZUVCZ5WSKgsy87ezRASbS1CoiEb2chGNrKRjWxkIxvZyEY2spGNbGQj+1fKnhn+LQ0Cx6YfLPGLKtNoIiT+Qk8QEv8xISS+UkJIfITEV0gIif9tQkj8bxNC4ismhMRHSPxnE0LiAwc4wAEOcIADHOAABzjAAQ5w1iGgJGhAAxrQgAY0oAENaEADGtCsD83/TSBL4AAHOMABDnCAAxzgAAc4wMnf3k8IiX/kTKjHHN9zKWMIiP9rBcT3gxvSGw6dgUO9wewxDP6PDYCflP4mZ/Hf6c/z74/qyQ+P3/q+PRPfx+HE/fM//wXszwIh"
               },
               {
                  "name" : "annual_peak_electric_demand",
                  "units" : "kW",
                  "value" : 18.0242
               },
               {
                  "name" : "first_year_capital_cost",
                  "units" : "$",
                  "value" : 0
               },
               {
                  "name" : "annual_utility_cost",
                  "units" : "$",
                  "value" : 7388.9400000000005
               },
               {
                  "name" : "total_lifecycle_cost",
                  "units" : "$",
                  "value" : 125202.39
               }
            ],
            "step_warnings" : []
         }
      }
   ],
   "updated_at" : "20170710T192550Z",
   "weather_file" : "USA_CO_Denver.Intl.AP.725650_TMY3.epw"
}
