{
   "completed_at" : "20170710T194626Z",
   "completed_status" : "Success",
   "created_at" : "2017-07-10 19:23:12 +0000",
   "current_step" : 5,
   "description" : "",
   "eplusout_err" : "Program Version,EnergyPlus, Version 8.7.0-78a111df4a, YMD=2017.07.10 19:34,IDD_Version 8.7.0\n   ************* IDF Context for following error/warning message:\n   ************* Note -- lines truncated at 300 characters, if necessary...\n   *************      5 Building,\n   ************* indicated Name=NECB 2011-Outpatient-NECB HDD Method-CAN_NF_St.Johns.718010_CWEC.epw created: 2017-07-10 19:23:29 +0000\n   ************* Only last 1 lines before error line shown.....\n   *************      6   NECB 2011-Outpatient-NECB HDD Method-CAN_NF_St.Johns.718010_CWEC.epw created: 2017-07-10 19:23:29 +0000, !- Name\n   ** Warning ** IP: IDF line~6 Alpha Argument length exceeds maximum, will be truncated=  NECB 2011-Outpatient-NECB HDD Method-CAN_NF_St.Johns.718010_CWEC.epw created: 2017-07-10 19:23:29 +000\n   **   ~~~   ** Will be processed as Alpha=NECB 2011-OUTPATIENT-NECB HDD METHOD-CAN_NF_ST.JOHNS.718010_CWEC.EPW CREATED: 2017-07-10 19:23:29 +0000\n   ************* IDF Context for following error/warning message:\n   ************* Note -- lines truncated at 300 characters, if necessary...\n   *************  33219 Schedule:Week:Daily,\n   ************* indicated Name=Schedule:Week:Daily {60750b0d-2083-46d1-838d-8d742a297688}\n   ************* Only last 10 lines before error line shown.....\n   *************  33220   Schedule:Week:Daily {60750b0d-2083-46d1-838d-8d742a297688}, !- Name\n   *************  33221   Sp-Floor 3 Physical Therapy 1 Sys-3 Flr-2 Sch-C HPlcmt-south ZN NECB System 3 PSZ Occ Sch Sunday, !- Sunday Schedule:Day Name\n   *************  33222   Sp-Floor 3 Physical Therapy 1 Sys-3 Flr-2 Sch-C HPlcmt-south ZN NECB System 3 PSZ Occ Sch Monday, !- Monday Schedule:Day Name\n   *************  33223   Sp-Floor 3 Physical Therapy 1 Sys-3 Flr-2 Sch-C HPlcmt-south ZN NECB System 3 PSZ Occ Sch Tuesday, !- Tuesday Schedule:Day Name\n   *************  33224   Sp-Floor 3 Physical Therapy 1 Sys-3 Flr-2 Sch-C HPlcmt-south ZN NECB System 3 PSZ Occ Sch Wednesday, !- Wednesday Schedule:Day Name\n   *************  33225   Sp-Floor 3 Physical Therapy 1 Sys-3 Flr-2 Sch-C HPlcmt-south ZN NECB System 3 PSZ Occ Sch Thursday, !- Thursday Schedule:Day Name\n   *************  33226   Sp-Floor 3 Physical Therapy 1 Sys-3 Flr-2 Sch-C HPlcmt-south ZN NECB System 3 PSZ Occ Sch Friday, !- Friday Schedule:Day Name\n   *************  33227   Sp-Floor 3 Physical Therapy 1 Sys-3 Flr-2 Sch-C HPlcmt-south ZN NECB System 3 PSZ Occ Sch Saturday, !- Saturday Schedule:Day Name\n   *************  33228   Sp-Floor 3 Physical Therapy 1 Sys-3 Flr-2 Sch-C HPlcmt-south ZN NECB System 3 PSZ Occ Sch Default, !- Holiday Schedule:Day Name\n   *************  33229   Sp-Floor 3 Physical Therapy 1 Sys-3 Flr-2 Sch-C HPlcmt-south ZN NECB System 3 PSZ Occ Sch Summer Design Day, !- SummerDesignDay Schedule:Day Name\n   ** Warning ** IP: IDF line~33229 Alpha Argument length exceeds maximum, will be truncated=  Sp-Floor 3 Physical Therapy 1 Sys-3 Flr-2 Sch-C HPlcmt-south ZN NECB System 3 PSZ Occ Sch Summer Design Da\n   **   ~~~   ** Will be processed as Alpha=SP-FLOOR 3 PHYSICAL THERAPY 1 SYS-3 FLR-2 SCH-C HPLCMT-SOUTH ZN NECB SYSTEM 3 PSZ OCC SCH SUMMER DESIGN DAY\n   ************* IDF Context for following error/warning message:\n   ************* Note -- lines truncated at 300 characters, if necessary...\n   *************  33219 Schedule:Week:Daily,\n   ************* indicated Name=Schedule:Week:Daily {60750b0d-2083-46d1-838d-8d742a297688}\n   ************* Only last 10 lines before error line shown.....\n   *************  33221   Sp-Floor 3 Physical Therapy 1 Sys-3 Flr-2 Sch-C HPlcmt-south ZN NECB System 3 PSZ Occ Sch Sunday, !- Sunday Schedule:Day Name\n   *************  33222   Sp-Floor 3 Physical Therapy 1 Sys-3 Flr-2 Sch-C HPlcmt-south ZN NECB System 3 PSZ Occ Sch Monday, !- Monday Schedule:Day Name\n   *************  33223   Sp-Floor 3 Physical Therapy 1 Sys-3 Flr-2 Sch-C HPlcmt-south ZN NECB System 3 PSZ Occ Sch Tuesday, !- Tuesday Schedule:Day Name\n   *************  33224   Sp-Floor 3 Physical Therapy 1 Sys-3 Flr-2 Sch-C HPlcmt-south ZN NECB System 3 PSZ Occ Sch Wednesday, !- Wednesday Schedule:Day Name\n   *************  33225   Sp-Floor 3 Physical Therapy 1 Sys-3 Flr-2 Sch-C HPlcmt-south ZN NECB System 3 PSZ Occ Sch Thursday, !- Thursday Schedule:Day Name\n   *************  33226   Sp-Floor 3 Physical Therapy 1 Sys-3 Flr-2 Sch-C HPlcmt-south ZN NECB System 3 PSZ Occ Sch Friday, !- Friday Schedule:Day Name\n   *************  33227   Sp-Floor 3 Physical Therapy 1 Sys-3 Flr-2 Sch-C HPlcmt-south ZN NECB System 3 PSZ Occ Sch Saturday, !- Saturday Schedule:Day Name\n   *************  33228   Sp-Floor 3 Physical Therapy 1 Sys-3 Flr-2 Sch-C HPlcmt-south ZN NECB System 3 PSZ Occ Sch Default, !- Holiday Schedule:Day Name\n   *************  33229   Sp-Floor 3 Physical Therapy 1 Sys-3 Flr-2 Sch-C HPlcmt-south ZN NECB System 3 PSZ Occ Sch Summer Design Day, !- SummerDesignDay Schedule:Day Name\n   *************  33230   Sp-Floor 3 Physical Therapy 1 Sys-3 Flr-2 Sch-C HPlcmt-south ZN NECB System 3 PSZ Occ Sch Winter Design Day, !- WinterDesignDay Schedule:Day Name\n   ** Warning ** IP: IDF line~33230 Alpha Argument length exceeds maximum, will be truncated=  Sp-Floor 3 Physical Therapy 1 Sys-3 Flr-2 Sch-C HPlcmt-south ZN NECB System 3 PSZ Occ Sch Winter Design Da\n   **   ~~~   ** Will be processed as Alpha=SP-FLOOR 3 PHYSICAL THERAPY 1 SYS-3 FLR-2 SCH-C HPLCMT-SOUTH ZN NECB SYSTEM 3 PSZ OCC SCH WINTER DESIGN DAY\n   ************* IDF Context for following error/warning message:\n   ************* Note -- lines truncated at 300 characters, if necessary...\n   *************  33250 Schedule:Day:Interval,\n   ************* indicated Name=Sp-Floor 3 Physical Therapy 1 Sys-3 Flr-2 Sch-C HPlcmt-south ZN NECB System 3 PSZ Occ Sch Summer Design Day\n   ************* Only last 1 lines before error line shown.....\n   *************  33251   Sp-Floor 3 Physical Therapy 1 Sys-3 Flr-2 Sch-C HPlcmt-south ZN NECB System 3 PSZ Occ Sch Summer Design Day, !- Name\n   ** Warning ** IP: IDF line~33251 Alpha Argument length exceeds maximum, will be truncated=  Sp-Floor 3 Physical Therapy 1 Sys-3 Flr-2 Sch-C HPlcmt-south ZN NECB System 3 PSZ Occ Sch Summer Design Da\n   **   ~~~   ** Will be processed as Alpha=SP-FLOOR 3 PHYSICAL THERAPY 1 SYS-3 FLR-2 SCH-C HPLCMT-SOUTH ZN NECB SYSTEM 3 PSZ OCC SCH SUMMER DESIGN DAY\n   ************* IDF Context for following error/warning message:\n   ************* Note -- lines truncated at 300 characters, if necessary...\n   *************  33257 Schedule:Day:Interval,\n   ************* indicated Name=Sp-Floor 3 Physical Therapy 1 Sys-3 Flr-2 Sch-C HPlcmt-south ZN NECB System 3 PSZ Occ Sch Winter Design Day\n   ************* Only last 1 lines before error line shown.....\n   *************  33258   Sp-Floor 3 Physical Therapy 1 Sys-3 Flr-2 Sch-C HPlcmt-south ZN NECB System 3 PSZ Occ Sch Winter Design Day, !- Name\n   ** Warning ** IP: IDF line~33258 Alpha Argument length exceeds maximum, will be truncated=  Sp-Floor 3 Physical Therapy 1 Sys-3 Flr-2 Sch-C HPlcmt-south ZN NECB System 3 PSZ Occ Sch Winter Design Da\n   **   ~~~   ** Will be processed as Alpha=SP-FLOOR 3 PHYSICAL THERAPY 1 SYS-3 FLR-2 SCH-C HPLCMT-SOUTH ZN NECB SYSTEM 3 PSZ OCC SCH WINTER DESIGN DAY\n   ************* IDF Context for following error/warning message:\n   ************* Note -- lines truncated at 300 characters, if necessary...\n   *************  35144 Schedule:Week:Daily,\n   ************* indicated Name=Schedule:Week:Daily {d8fa6ecd-cb13-4186-95c9-5e7c7f4b66fd}\n   ************* Only last 10 lines before error line shown.....\n   *************  35145   Schedule:Week:Daily {d8fa6ecd-cb13-4186-95c9-5e7c7f4b66fd}, !- Name\n   *************  35146   Sp-Floor 3 Undeveloped 1 Sys-4 Flr-2 Sch-E HPlcmt-south ZN NECB System 4 PSZ Occ Sch Sunday, !- Sunday Schedule:Day Name\n   *************  35147   Sp-Floor 3 Undeveloped 1 Sys-4 Flr-2 Sch-E HPlcmt-south ZN NECB System 4 PSZ Occ Sch Monday, !- Monday Schedule:Day Name\n   *************  35148   Sp-Floor 3 Undeveloped 1 Sys-4 Flr-2 Sch-E HPlcmt-south ZN NECB System 4 PSZ Occ Sch Tuesday, !- Tuesday Schedule:Day Name\n   *************  35149   Sp-Floor 3 Undeveloped 1 Sys-4 Flr-2 Sch-E HPlcmt-south ZN NECB System 4 PSZ Occ Sch Wednesday, !- Wednesday Schedule:Day Name\n   *************  35150   Sp-Floor 3 Undeveloped 1 Sys-4 Flr-2 Sch-E HPlcmt-south ZN NECB System 4 PSZ Occ Sch Thursday, !- Thursday Schedule:Day Name\n   *************  35151   Sp-Floor 3 Undeveloped 1 Sys-4 Flr-2 Sch-E HPlcmt-south ZN NECB System 4 PSZ Occ Sch Friday, !- Friday Schedule:Day Name\n   *************  35152   Sp-Floor 3 Undeveloped 1 Sys-4 Flr-2 Sch-E HPlcmt-south ZN NECB System 4 PSZ Occ Sch Saturday, !- Saturday Schedule:Day Name\n   *************  35153   Sp-Floor 3 Undeveloped 1 Sys-4 Flr-2 Sch-E HPlcmt-south ZN NECB System 4 PSZ Occ Sch Default, !- Holiday Schedule:Day Name\n   *************  35154   Sp-Floor 3 Undeveloped 1 Sys-4 Flr-2 Sch-E HPlcmt-south ZN NECB System 4 PSZ Occ Sch Summer Design Day, !- SummerDesignDay Schedule:Day Name\n   ** Warning ** IP: IDF line~35154 Alpha Argument length exceeds maximum, will be truncated=  Sp-Floor 3 Undeveloped 1 Sys-4 Flr-2 Sch-E HPlcmt-south ZN NECB System 4 PSZ Occ Sch Summer Design Da\n   **   ~~~   ** Will be processed as Alpha=SP-FLOOR 3 UNDEVELOPED 1 SYS-4 FLR-2 SCH-E HPLCMT-SOUTH ZN NECB SYSTEM 4 PSZ OCC SCH SUMMER DESIGN DAY\n   ************* IDF Context for following error/warning message:\n   ************* Note -- lines truncated at 300 characters, if necessary...\n   *************  35144 Schedule:Week:Daily,\n   ************* indicated Name=Schedule:Week:Daily {d8fa6ecd-cb13-4186-95c9-5e7c7f4b66fd}\n   ************* Only last 10 lines before error line shown.....\n   *************  35146   Sp-Floor 3 Undeveloped 1 Sys-4 Flr-2 Sch-E HPlcmt-south ZN NECB System 4 PSZ Occ Sch Sunday, !- Sunday Schedule:Day Name\n   *************  35147   Sp-Floor 3 Undeveloped 1 Sys-4 Flr-2 Sch-E HPlcmt-south ZN NECB System 4 PSZ Occ Sch Monday, !- Monday Schedule:Day Name\n   *************  35148   Sp-Floor 3 Undeveloped 1 Sys-4 Flr-2 Sch-E HPlcmt-south ZN NECB System 4 PSZ Occ Sch Tuesday, !- Tuesday Schedule:Day Name\n   *************  35149   Sp-Floor 3 Undeveloped 1 Sys-4 Flr-2 Sch-E HPlcmt-south ZN NECB System 4 PSZ Occ Sch Wednesday, !- Wednesday Schedule:Day Name\n   *************  35150   Sp-Floor 3 Undeveloped 1 Sys-4 Flr-2 Sch-E HPlcmt-south ZN NECB System 4 PSZ Occ Sch Thursday, !- Thursday Schedule:Day Name\n   *************  35151   Sp-Floor 3 Undeveloped 1 Sys-4 Flr-2 Sch-E HPlcmt-south ZN NECB System 4 PSZ Occ Sch Friday, !- Friday Schedule:Day Name\n   *************  35152   Sp-Floor 3 Undeveloped 1 Sys-4 Flr-2 Sch-E HPlcmt-south ZN NECB System 4 PSZ Occ Sch Saturday, !- Saturday Schedule:Day Name\n   *************  35153   Sp-Floor 3 Undeveloped 1 Sys-4 Flr-2 Sch-E HPlcmt-south ZN NECB System 4 PSZ Occ Sch Default, !- Holiday Schedule:Day Name\n   *************  35154   Sp-Floor 3 Undeveloped 1 Sys-4 Flr-2 Sch-E HPlcmt-south ZN NECB System 4 PSZ Occ Sch Summer Design Day, !- SummerDesignDay Schedule:Day Name\n   *************  35155   Sp-Floor 3 Undeveloped 1 Sys-4 Flr-2 Sch-E HPlcmt-south ZN NECB System 4 PSZ Occ Sch Winter Design Day, !- WinterDesignDay Schedule:Day Name\n   ** Warning ** IP: IDF line~35155 Alpha Argument length exceeds maximum, will be truncated=  Sp-Floor 3 Undeveloped 1 Sys-4 Flr-2 Sch-E HPlcmt-south ZN NECB System 4 PSZ Occ Sch Winter Design Da\n   **   ~~~   ** Will be processed as Alpha=SP-FLOOR 3 UNDEVELOPED 1 SYS-4 FLR-2 SCH-E HPLCMT-SOUTH ZN NECB SYSTEM 4 PSZ OCC SCH WINTER DESIGN DAY\n   ************* IDF Context for following error/warning message:\n   ************* Note -- lines truncated at 300 characters, if necessary...\n   *************  35175 Schedule:Day:Interval,\n   ************* indicated Name=Sp-Floor 3 Undeveloped 1 Sys-4 Flr-2 Sch-E HPlcmt-south ZN NECB System 4 PSZ Occ Sch Summer Design Day\n   ************* Only last 1 lines before error line shown.....\n   *************  35176   Sp-Floor 3 Undeveloped 1 Sys-4 Flr-2 Sch-E HPlcmt-south ZN NECB System 4 PSZ Occ Sch Summer Design Day, !- Name\n   ** Warning ** IP: IDF line~35176 Alpha Argument length exceeds maximum, will be truncated=  Sp-Floor 3 Undeveloped 1 Sys-4 Flr-2 Sch-E HPlcmt-south ZN NECB System 4 PSZ Occ Sch Summer Design Da\n   **   ~~~   ** Will be processed as Alpha=SP-FLOOR 3 UNDEVELOPED 1 SYS-4 FLR-2 SCH-E HPLCMT-SOUTH ZN NECB SYSTEM 4 PSZ OCC SCH SUMMER DESIGN DAY\n   ************* IDF Context for following error/warning message:\n   ************* Note -- lines truncated at 300 characters, if necessary...\n   *************  35182 Schedule:Day:Interval,\n   ************* indicated Name=Sp-Floor 3 Undeveloped 1 Sys-4 Flr-2 Sch-E HPlcmt-south ZN NECB System 4 PSZ Occ Sch Winter Design Day\n   ************* Only last 1 lines before error line shown.....\n   *************  35183   Sp-Floor 3 Undeveloped 1 Sys-4 Flr-2 Sch-E HPlcmt-south ZN NECB System 4 PSZ Occ Sch Winter Design Day, !- Name\n   ** Warning ** IP: IDF line~35183 Alpha Argument length exceeds maximum, will be truncated=  Sp-Floor 3 Undeveloped 1 Sys-4 Flr-2 Sch-E HPlcmt-south ZN NECB System 4 PSZ Occ Sch Winter Design Da\n   **   ~~~   ** Will be processed as Alpha=SP-FLOOR 3 UNDEVELOPED 1 SYS-4 FLR-2 SCH-E HPLCMT-SOUTH ZN NECB SYSTEM 4 PSZ OCC SCH WINTER DESIGN DAY\n   ************* IDF Context for following error/warning message:\n   ************* Note -- lines truncated at 300 characters, if necessary...\n   *************  49834 AirLoopHVAC,\n   ************* indicated Name=Sp-Floor 1 Electrical Room Sys-4 Flr-3 Sch-H HPlcmt-east ZN NECB System 4 PSZ\n   ************* Only last 3 lines before error line shown.....\n   *************  49835   Sp-Floor 1 Electrical Room Sys-4 Flr-3 Sch-H HPlcmt-east ZN NECB System 4 PSZ, !- Name\n   *************  49836   ,                                       !- Controller List Name\n   *************  49837   Sp-Floor 1 Electrical Room Sys-4 Flr-3 Sch-H HPlcmt-east ZN NECB System 4 PSZAvailability Manager List, !- Availability Manager List Name\n   ** Warning ** IP: IDF line~49837 Alpha Argument length exceeds maximum, will be truncated=  Sp-Floor 1 Electrical Room Sys-4 Flr-3 Sch-H HPlcmt-east ZN NECB System 4 PSZAvailability Manager Lis\n   **   ~~~   ** Will be processed as Alpha=SP-FLOOR 1 ELECTRICAL ROOM SYS-4 FLR-3 SCH-H HPLCMT-EAST ZN NECB SYSTEM 4 PSZAVAILABILITY MANAGER LIST\n   ************* IDF Context for following error/warning message:\n   ************* Note -- lines truncated at 300 characters, if necessary...\n   *************  49893 AvailabilityManagerAssignmentList,\n   ************* indicated Name=Sp-Floor 1 Electrical Room Sys-4 Flr-3 Sch-H HPlcmt-east ZN NECB System 4 PSZAvailability Manager List\n   ************* Only last 1 lines before error line shown.....\n   *************  49894   Sp-Floor 1 Electrical Room Sys-4 Flr-3 Sch-H HPlcmt-east ZN NECB System 4 PSZAvailability Manager List, !- Name\n   ** Warning ** IP: IDF line~49894 Alpha Argument length exceeds maximum, will be truncated=  Sp-Floor 1 Electrical Room Sys-4 Flr-3 Sch-H HPlcmt-east ZN NECB System 4 PSZAvailability Manager Lis\n   **   ~~~   ** Will be processed as Alpha=SP-FLOOR 1 ELECTRICAL ROOM SYS-4 FLR-3 SCH-H HPLCMT-EAST ZN NECB SYSTEM 4 PSZAVAILABILITY MANAGER LIST\n   ************* IDF Context for following error/warning message:\n   ************* Note -- lines truncated at 300 characters, if necessary...\n   *************  50156 AirLoopHVAC,\n   ************* indicated Name=Sp-Floor 1 Elevator Pump Room Sys-3 Flr-3 Sch-H HPlcmt-north ZN NECB System 3 PSZ\n   ************* Only last 3 lines before error line shown.....\n   *************  50157   Sp-Floor 1 Elevator Pump Room Sys-3 Flr-3 Sch-H HPlcmt-north ZN NECB System 3 PSZ, !- Name\n   *************  50158   ,                                       !- Controller List Name\n   *************  50159   Sp-Floor 1 Elevator Pump Room Sys-3 Flr-3 Sch-H HPlcmt-north ZN NECB System 3 PSZAvailability Manager List, !- Availability Manager List Name\n   ** Warning ** IP: IDF line~50159 Alpha Argument length exceeds maximum, will be truncated=  Sp-Floor 1 Elevator Pump Room Sys-3 Flr-3 Sch-H HPlcmt-north ZN NECB System 3 PSZAvailability Manager Lis\n   **   ~~~   ** Will be processed as Alpha=SP-FLOOR 1 ELEVATOR PUMP ROOM SYS-3 FLR-3 SCH-H HPLCMT-NORTH ZN NECB SYSTEM 3 PSZAVAILABILITY MANAGER LIST\n   ************* IDF Context for following error/warning message:\n   ************* Note -- lines truncated at 300 characters, if necessary...\n   *************  50156 AirLoopHVAC,\n   ************* indicated Name=Sp-Floor 1 Elevator Pump Room Sys-3 Flr-3 Sch-H HPlcmt-north ZN NECB System 3 PSZ\n   ************* Only last 10 lines before error line shown.....\n   *************  50157   Sp-Floor 1 Elevator Pump Room Sys-3 Flr-3 Sch-H HPlcmt-north ZN NECB System 3 PSZ, !- Name\n   *************  50158   ,                                       !- Controller List Name\n   *************  50159   Sp-Floor 1 Elevator Pump Room Sys-3 Flr-3 Sch-H HPlcmt-north ZN NECB System 3 PSZAvailability Manager List, !- Availability Manager List Name\n   *************  50160   AutoSize,                               !- Design Supply Air Flow Rate {m3/s}\n   *************  50161   Sp-Floor 1 Elevator Pump Room Sys-3 Flr-3 Sch-H HPlcmt-north ZN NECB System 3 PSZ Supply Branches, !- Branch List Name\n   *************  50162   ,                                       !- Connector List Name\n   *************  50163   Node 570,                               !- Supply Side Inlet Node Name\n   *************  50164   Node 573,                               !- Demand Side Outlet Node Name\n   *************  50165   Sp-Floor 1 Elevator Pump Room Sys-3 Flr-3 Sch-H HPlcmt-north ZN NECB System 3 PSZ Demand Inlet Nodes, !- Demand Side Inlet Node Names\n   *************  50166   Sp-Floor 1 Elevator Pump Room Sys-3 Flr-3 Sch-H HPlcmt-north ZN NECB System 3 PSZ Supply Outlet Nodes; !- Supply Side Outlet Node Names\n   ** Warning ** IP: IDF line~50166 Alpha Argument length exceeds maximum, will be truncated=  Sp-Floor 1 Elevator Pump Room Sys-3 Flr-3 Sch-H HPlcmt-north ZN NECB System 3 PSZ Supply Outlet Node\n   **   ~~~   ** Will be processed as Alpha=SP-FLOOR 1 ELEVATOR PUMP ROOM SYS-3 FLR-3 SCH-H HPLCMT-NORTH ZN NECB SYSTEM 3 PSZ SUPPLY OUTLET NODES\n   ************* IDF Context for following error/warning message:\n   ************* Note -- lines truncated at 300 characters, if necessary...\n   *************  50168 NodeList,\n   ************* indicated Name=Sp-Floor 1 Elevator Pump Room Sys-3 Flr-3 Sch-H HPlcmt-north ZN NECB System 3 PSZ Supply Outlet Nodes\n   ************* Only last 1 lines before error line shown.....\n   *************  50169   Sp-Floor 1 Elevator Pump Room Sys-3 Flr-3 Sch-H HPlcmt-north ZN NECB System 3 PSZ Supply Outlet Nodes, !- Name\n   ** Warning ** IP: IDF line~50169 Alpha Argument length exceeds maximum, will be truncated=  Sp-Floor 1 Elevator Pump Room Sys-3 Flr-3 Sch-H HPlcmt-north ZN NECB System 3 PSZ Supply Outlet Node\n   **   ~~~   ** Will be processed as Alpha=SP-FLOOR 1 ELEVATOR PUMP ROOM SYS-3 FLR-3 SCH-H HPLCMT-NORTH ZN NECB SYSTEM 3 PSZ SUPPLY OUTLET NODES\n   ************* IDF Context for following error/warning message:\n   ************* Note -- lines truncated at 300 characters, if necessary...\n   *************  50215 AvailabilityManagerAssignmentList,\n   ************* indicated Name=Sp-Floor 1 Elevator Pump Room Sys-3 Flr-3 Sch-H HPlcmt-north ZN NECB System 3 PSZAvailability Manager List\n   ************* Only last 1 lines before error line shown.....\n   *************  50216   Sp-Floor 1 Elevator Pump Room Sys-3 Flr-3 Sch-H HPlcmt-north ZN NECB System 3 PSZAvailability Manager List, !- Name\n   ** Warning ** IP: IDF line~50216 Alpha Argument length exceeds maximum, will be truncated=  Sp-Floor 1 Elevator Pump Room Sys-3 Flr-3 Sch-H HPlcmt-north ZN NECB System 3 PSZAvailability Manager Lis\n   **   ~~~   ** Will be processed as Alpha=SP-FLOOR 1 ELEVATOR PUMP ROOM SYS-3 FLR-3 SCH-H HPLCMT-NORTH ZN NECB SYSTEM 3 PSZAVAILABILITY MANAGER LIST\n   ************* IDF Context for following error/warning message:\n   ************* Note -- lines truncated at 300 characters, if necessary...\n   *************  50215 AvailabilityManagerAssignmentList,\n   ************* indicated Name=Sp-Floor 1 Elevator Pump Room Sys-3 Flr-3 Sch-H HPlcmt-north ZN NECB System 3 PSZAvailability Manager List\n   ************* Only last 3 lines before error line shown.....\n   *************  50216   Sp-Floor 1 Elevator Pump Room Sys-3 Flr-3 Sch-H HPlcmt-north ZN NECB System 3 PSZAvailability Manager List, !- Name\n   *************  50217   AvailabilityManager:Scheduled,          !- Availability Manager Object Type 1\n   *************  50218   Sp-Floor 1 Elevator Pump Room Sys-3 Flr-3 Sch-H HPlcmt-north ZN NECB System 3 PSZ Availability Manager; !- Availability Manager Name 1\n   ** Warning ** IP: IDF line~50218 Alpha Argument length exceeds maximum, will be truncated=  Sp-Floor 1 Elevator Pump Room Sys-3 Flr-3 Sch-H HPlcmt-north ZN NECB System 3 PSZ Availability Manage\n   **   ~~~   ** Will be processed as Alpha=SP-FLOOR 1 ELEVATOR PUMP ROOM SYS-3 FLR-3 SCH-H HPLCMT-NORTH ZN NECB SYSTEM 3 PSZ AVAILABILITY MANAGER\n   ************* IDF Context for following error/warning message:\n   ************* Note -- lines truncated at 300 characters, if necessary...\n   *************  50220 AvailabilityManager:Scheduled,\n   ************* indicated Name=Sp-Floor 1 Elevator Pump Room Sys-3 Flr-3 Sch-H HPlcmt-north ZN NECB System 3 PSZ Availability Manager\n   ************* Only last 1 lines before error line shown.....\n   *************  50221   Sp-Floor 1 Elevator Pump Room Sys-3 Flr-3 Sch-H HPlcmt-north ZN NECB System 3 PSZ Availability Manager, !- Name\n   ** Warning ** IP: IDF line~50221 Alpha Argument length exceeds maximum, will be truncated=  Sp-Floor 1 Elevator Pump Room Sys-3 Flr-3 Sch-H HPlcmt-north ZN NECB System 3 PSZ Availability Manage\n   **   ~~~   ** Will be processed as Alpha=SP-FLOOR 1 ELEVATOR PUMP ROOM SYS-3 FLR-3 SCH-H HPLCMT-NORTH ZN NECB SYSTEM 3 PSZ AVAILABILITY MANAGER\n   ************* IDF Context for following error/warning message:\n   ************* Note -- lines truncated at 300 characters, if necessary...\n   *************  50456 AirLoopHVAC:SupplyPath,\n   ************* indicated Name=Sp-Floor 1 Elevator Pump Room Sys-3 Flr-3 Sch-H HPlcmt-north ZN NECB System 3 PSZ Node 572 Supply Path\n   ************* Only last 1 lines before error line shown.....\n   *************  50457   Sp-Floor 1 Elevator Pump Room Sys-3 Flr-3 Sch-H HPlcmt-north ZN NECB System 3 PSZ Node 572 Supply Path, !- Name\n   ** Warning ** IP: IDF line~50457 Alpha Argument length exceeds maximum, will be truncated=  Sp-Floor 1 Elevator Pump Room Sys-3 Flr-3 Sch-H HPlcmt-north ZN NECB System 3 PSZ Node 572 Supply Pat\n   **   ~~~   ** Will be processed as Alpha=SP-FLOOR 1 ELEVATOR PUMP ROOM SYS-3 FLR-3 SCH-H HPLCMT-NORTH ZN NECB SYSTEM 3 PSZ NODE 572 SUPPLY PATH\n   ************* IDF Context for following error/warning message:\n   ************* Note -- lines truncated at 300 characters, if necessary...\n   *************  51766 AirLoopHVAC,\n   ************* indicated Name=Sp-Floor 1 Locker Room Hall Sys-4 Flr-3 Sch-H HPlcmt-core ZN NECB System 4 PSZ\n   ************* Only last 3 lines before error line shown.....\n   *************  51767   Sp-Floor 1 Locker Room Hall Sys-4 Flr-3 Sch-H HPlcmt-core ZN NECB System 4 PSZ, !- Name\n   *************  51768   ,                                       !- Controller List Name\n   *************  51769   Sp-Floor 1 Locker Room Hall Sys-4 Flr-3 Sch-H HPlcmt-core ZN NECB System 4 PSZAvailability Manager List, !- Availability Manager List Name\n   ** Warning ** IP: IDF line~51769 Alpha Argument length exceeds maximum, will be truncated=  Sp-Floor 1 Locker Room Hall Sys-4 Flr-3 Sch-H HPlcmt-core ZN NECB System 4 PSZAvailability Manager Lis\n   **   ~~~   ** Will be processed as Alpha=SP-FLOOR 1 LOCKER ROOM HALL SYS-4 FLR-3 SCH-H HPLCMT-CORE ZN NECB SYSTEM 4 PSZAVAILABILITY MANAGER LIST\n   ************* IDF Context for following error/warning message:\n   ************* Note -- lines truncated at 300 characters, if necessary...\n   *************  51825 AvailabilityManagerAssignmentList,\n   ************* indicated Name=Sp-Floor 1 Locker Room Hall Sys-4 Flr-3 Sch-H HPlcmt-core ZN NECB System 4 PSZAvailability Manager List\n   ************* Only last 1 lines before error line shown.....\n   *************  51826   Sp-Floor 1 Locker Room Hall Sys-4 Flr-3 Sch-H HPlcmt-core ZN NECB System 4 PSZAvailability Manager List, !- Name\n   ** Warning ** IP: IDF line~51826 Alpha Argument length exceeds maximum, will be truncated=  Sp-Floor 1 Locker Room Hall Sys-4 Flr-3 Sch-H HPlcmt-core ZN NECB System 4 PSZAvailability Manager Lis\n   **   ~~~   ** Will be processed as Alpha=SP-FLOOR 1 LOCKER ROOM HALL SYS-4 FLR-3 SCH-H HPLCMT-CORE ZN NECB SYSTEM 4 PSZAVAILABILITY MANAGER LIST\n   ************* IDF Context for following error/warning message:\n   ************* Note -- lines truncated at 300 characters, if necessary...\n   *************  52732 AirLoopHVAC,\n   ************* indicated Name=Sp-Floor 1 MRI Control Room Sys-3 Flr-3 Sch-H HPlcmt-north ZN NECB System 3 PSZ\n   ************* Only last 3 lines before error line shown.....\n   *************  52733   Sp-Floor 1 MRI Control Room Sys-3 Flr-3 Sch-H HPlcmt-north ZN NECB System 3 PSZ, !- Name\n   *************  52734   ,                                       !- Controller List Name\n   *************  52735   Sp-Floor 1 MRI Control Room Sys-3 Flr-3 Sch-H HPlcmt-north ZN NECB System 3 PSZAvailability Manager List, !- Availability Manager List Name\n   ** Warning ** IP: IDF line~52735 Alpha Argument length exceeds maximum, will be truncated=  Sp-Floor 1 MRI Control Room Sys-3 Flr-3 Sch-H HPlcmt-north ZN NECB System 3 PSZAvailability Manager Lis\n   **   ~~~   ** Will be processed as Alpha=SP-FLOOR 1 MRI CONTROL ROOM SYS-3 FLR-3 SCH-H HPLCMT-NORTH ZN NECB SYSTEM 3 PSZAVAILABILITY MANAGER LIST\n   ************* IDF Context for following error/warning message:\n   ************* Note -- lines truncated at 300 characters, if necessary...\n   *************  52791 AvailabilityManagerAssignmentList,\n   ************* indicated Name=Sp-Floor 1 MRI Control Room Sys-3 Flr-3 Sch-H HPlcmt-north ZN NECB System 3 PSZAvailability Manager List\n   ************* Only last 1 lines before error line shown.....\n   *************  52792   Sp-Floor 1 MRI Control Room Sys-3 Flr-3 Sch-H HPlcmt-north ZN NECB System 3 PSZAvailability Manager List, !- Name\n   ** Warning ** IP: IDF line~52792 Alpha Argument length exceeds maximum, will be truncated=  Sp-Floor 1 MRI Control Room Sys-3 Flr-3 Sch-H HPlcmt-north ZN NECB System 3 PSZAvailability Manager Lis\n   **   ~~~   ** Will be processed as Alpha=SP-FLOOR 1 MRI CONTROL ROOM SYS-3 FLR-3 SCH-H HPLCMT-NORTH ZN NECB SYSTEM 3 PSZAVAILABILITY MANAGER LIST\n   ************* IDF Context for following error/warning message:\n   ************* Note -- lines truncated at 300 characters, if necessary...\n   *************  54986 AirLoopHVAC,\n   ************* indicated Name=Sp-Floor 1 Operating Room 1 Sys-3 Flr-3 Sch-H HPlcmt-east ZN NECB System 3 PSZ\n   ************* Only last 3 lines before error line shown.....\n   *************  54987   Sp-Floor 1 Operating Room 1 Sys-3 Flr-3 Sch-H HPlcmt-east ZN NECB System 3 PSZ, !- Name\n   *************  54988   ,                                       !- Controller List Name\n   *************  54989   Sp-Floor 1 Operating Room 1 Sys-3 Flr-3 Sch-H HPlcmt-east ZN NECB System 3 PSZAvailability Manager List, !- Availability Manager List Name\n   ** Warning ** IP: IDF line~54989 Alpha Argument length exceeds maximum, will be truncated=  Sp-Floor 1 Operating Room 1 Sys-3 Flr-3 Sch-H HPlcmt-east ZN NECB System 3 PSZAvailability Manager Lis\n   **   ~~~   ** Will be processed as Alpha=SP-FLOOR 1 OPERATING ROOM 1 SYS-3 FLR-3 SCH-H HPLCMT-EAST ZN NECB SYSTEM 3 PSZAVAILABILITY MANAGER LIST\n   ************* IDF Context for following error/warning message:\n   ************* Note -- lines truncated at 300 characters, if necessary...\n   *************  55045 AvailabilityManagerAssignmentList,\n   ************* indicated Name=Sp-Floor 1 Operating Room 1 Sys-3 Flr-3 Sch-H HPlcmt-east ZN NECB System 3 PSZAvailability Manager List\n   ************* Only last 1 lines before error line shown.....\n   *************  55046   Sp-Floor 1 Operating Room 1 Sys-3 Flr-3 Sch-H HPlcmt-east ZN NECB System 3 PSZAvailability Manager List, !- Name\n   ** Warning ** IP: IDF line~55046 Alpha Argument length exceeds maximum, will be truncated=  Sp-Floor 1 Operating Room 1 Sys-3 Flr-3 Sch-H HPlcmt-east ZN NECB System 3 PSZAvailability Manager Lis\n   **   ~~~   ** Will be processed as Alpha=SP-FLOOR 1 OPERATING ROOM 1 SYS-3 FLR-3 SCH-H HPLCMT-EAST ZN NECB SYSTEM 3 PSZAVAILABILITY MANAGER LIST\n   ************* IDF Context for following error/warning message:\n   ************* Note -- lines truncated at 300 characters, if necessary...\n   *************  55308 AirLoopHVAC,\n   ************* indicated Name=Sp-Floor 1 Operating Room 2 Sys-3 Flr-3 Sch-H HPlcmt-east ZN NECB System 3 PSZ\n   ************* Only last 3 lines before error line shown.....\n   *************  55309   Sp-Floor 1 Operating Room 2 Sys-3 Flr-3 Sch-H HPlcmt-east ZN NECB System 3 PSZ, !- Name\n   *************  55310   ,                                       !- Controller List Name\n   *************  55311   Sp-Floor 1 Operating Room 2 Sys-3 Flr-3 Sch-H HPlcmt-east ZN NECB System 3 PSZAvailability Manager List, !- Availability Manager List Name\n   ** Warning ** IP: IDF line~55311 Alpha Argument length exceeds maximum, will be truncated=  Sp-Floor 1 Operating Room 2 Sys-3 Flr-3 Sch-H HPlcmt-east ZN NECB System 3 PSZAvailability Manager Lis\n   **   ~~~   ** Will be processed as Alpha=SP-FLOOR 1 OPERATING ROOM 2 SYS-3 FLR-3 SCH-H HPLCMT-EAST ZN NECB SYSTEM 3 PSZAVAILABILITY MANAGER LIST\n   ************* IDF Context for following error/warning message:\n   ************* Note -- lines truncated at 300 characters, if necessary...\n   *************  55367 AvailabilityManagerAssignmentList,\n   ************* indicated Name=Sp-Floor 1 Operating Room 2 Sys-3 Flr-3 Sch-H HPlcmt-east ZN NECB System 3 PSZAvailability Manager List\n   ************* Only last 1 lines before error line shown.....\n   *************  55368   Sp-Floor 1 Operating Room 2 Sys-3 Flr-3 Sch-H HPlcmt-east ZN NECB System 3 PSZAvailability Manager List, !- Name\n   ** Warning ** IP: IDF line~55368 Alpha Argument length exceeds maximum, will be truncated=  Sp-Floor 1 Operating Room 2 Sys-3 Flr-3 Sch-H HPlcmt-east ZN NECB System 3 PSZAvailability Manager Lis\n   **   ~~~   ** Will be processed as Alpha=SP-FLOOR 1 OPERATING ROOM 2 SYS-3 FLR-3 SCH-H HPLCMT-EAST ZN NECB SYSTEM 3 PSZAVAILABILITY MANAGER LIST\n   ************* IDF Context for following error/warning message:\n   ************* Note -- lines truncated at 300 characters, if necessary...\n   *************  55630 AirLoopHVAC,\n   ************* indicated Name=Sp-Floor 1 Operating Room 3 Sys-3 Flr-3 Sch-H HPlcmt-core ZN NECB System 3 PSZ\n   ************* Only last 3 lines before error line shown.....\n   *************  55631   Sp-Floor 1 Operating Room 3 Sys-3 Flr-3 Sch-H HPlcmt-core ZN NECB System 3 PSZ, !- Name\n   *************  55632   ,                                       !- Controller List Name\n   *************  55633   Sp-Floor 1 Operating Room 3 Sys-3 Flr-3 Sch-H HPlcmt-core ZN NECB System 3 PSZAvailability Manager List, !- Availability Manager List Name\n   ** Warning ** IP: IDF line~55633 Alpha Argument length exceeds maximum, will be truncated=  Sp-Floor 1 Operating Room 3 Sys-3 Flr-3 Sch-H HPlcmt-core ZN NECB System 3 PSZAvailability Manager Lis\n   **   ~~~   ** Will be processed as Alpha=SP-FLOOR 1 OPERATING ROOM 3 SYS-3 FLR-3 SCH-H HPLCMT-CORE ZN NECB SYSTEM 3 PSZAVAILABILITY MANAGER LIST\n   ************* IDF Context for following error/warning message:\n   ************* Note -- lines truncated at 300 characters, if necessary...\n   *************  55689 AvailabilityManagerAssignmentList,\n   ************* indicated Name=Sp-Floor 1 Operating Room 3 Sys-3 Flr-3 Sch-H HPlcmt-core ZN NECB System 3 PSZAvailability Manager List\n   ************* Only last 1 lines before error line shown.....\n   *************  55690   Sp-Floor 1 Operating Room 3 Sys-3 Flr-3 Sch-H HPlcmt-core ZN NECB System 3 PSZAvailability Manager List, !- Name\n   ** Warning ** IP: IDF line~55690 Alpha Argument length exceeds maximum, will be truncated=  Sp-Floor 1 Operating Room 3 Sys-3 Flr-3 Sch-H HPlcmt-core ZN NECB System 3 PSZAvailability Manager Lis\n   **   ~~~   ** Will be processed as Alpha=SP-FLOOR 1 OPERATING ROOM 3 SYS-3 FLR-3 SCH-H HPLCMT-CORE ZN NECB SYSTEM 3 PSZAVAILABILITY MANAGER LIST\n   ************* IDF Context for following error/warning message:\n   ************* Note -- lines truncated at 300 characters, if necessary...\n   *************  57240 AirLoopHVAC,\n   ************* indicated Name=Sp-Floor 1 Procedure Room Sys-3 Flr-3 Sch-H HPlcmt-north ZN NECB System 3 PSZ\n   ************* Only last 3 lines before error line shown.....\n   *************  57241   Sp-Floor 1 Procedure Room Sys-3 Flr-3 Sch-H HPlcmt-north ZN NECB System 3 PSZ, !- Name\n   *************  57242   ,                                       !- Controller List Name\n   *************  57243   Sp-Floor 1 Procedure Room Sys-3 Flr-3 Sch-H HPlcmt-north ZN NECB System 3 PSZAvailability Manager List, !- Availability Manager List Name\n   ** Warning ** IP: IDF line~57243 Alpha Argument length exceeds maximum, will be truncated=  Sp-Floor 1 Procedure Room Sys-3 Flr-3 Sch-H HPlcmt-north ZN NECB System 3 PSZAvailability Manager Lis\n   **   ~~~   ** Will be processed as Alpha=SP-FLOOR 1 PROCEDURE ROOM SYS-3 FLR-3 SCH-H HPLCMT-NORTH ZN NECB SYSTEM 3 PSZAVAILABILITY MANAGER LIST\n   ************* IDF Context for following error/warning message:\n   ************* Note -- lines truncated at 300 characters, if necessary...\n   *************  57299 AvailabilityManagerAssignmentList,\n   ************* indicated Name=Sp-Floor 1 Procedure Room Sys-3 Flr-3 Sch-H HPlcmt-north ZN NECB System 3 PSZAvailability Manager List\n   ************* Only last 1 lines before error line shown.....\n   *************  57300   Sp-Floor 1 Procedure Room Sys-3 Flr-3 Sch-H HPlcmt-north ZN NECB System 3 PSZAvailability Manager List, !- Name\n   ** Warning ** IP: IDF line~57300 Alpha Argument length exceeds maximum, will be truncated=  Sp-Floor 1 Procedure Room Sys-3 Flr-3 Sch-H HPlcmt-north ZN NECB System 3 PSZAvailability Manager Lis\n   **   ~~~   ** Will be processed as Alpha=SP-FLOOR 1 PROCEDURE ROOM SYS-3 FLR-3 SCH-H HPLCMT-NORTH ZN NECB SYSTEM 3 PSZAVAILABILITY MANAGER LIST\n   ************* IDF Context for following error/warning message:\n   ************* Note -- lines truncated at 300 characters, if necessary...\n   *************  57884 AirLoopHVAC,\n   ************* indicated Name=Sp-Floor 1 Recovery Room Sys-3 Flr-3 Sch-H HPlcmt-south ZN NECB System 3 PSZ\n   ************* Only last 3 lines before error line shown.....\n   *************  57885   Sp-Floor 1 Recovery Room Sys-3 Flr-3 Sch-H HPlcmt-south ZN NECB System 3 PSZ, !- Name\n   *************  57886   ,                                       !- Controller List Name\n   *************  57887   Sp-Floor 1 Recovery Room Sys-3 Flr-3 Sch-H HPlcmt-south ZN NECB System 3 PSZAvailability Manager List, !- Availability Manager List Name\n   ** Warning ** IP: IDF line~57887 Alpha Argument length exceeds maximum, will be truncated=  Sp-Floor 1 Recovery Room Sys-3 Flr-3 Sch-H HPlcmt-south ZN NECB System 3 PSZAvailability Manager Lis\n   **   ~~~   ** Will be processed as Alpha=SP-FLOOR 1 RECOVERY ROOM SYS-3 FLR-3 SCH-H HPLCMT-SOUTH ZN NECB SYSTEM 3 PSZAVAILABILITY MANAGER LIST\n   ************* IDF Context for following error/warning message:\n   ************* Note -- lines truncated at 300 characters, if necessary...\n   *************  57943 AvailabilityManagerAssignmentList,\n   ************* indicated Name=Sp-Floor 1 Recovery Room Sys-3 Flr-3 Sch-H HPlcmt-south ZN NECB System 3 PSZAvailability Manager List\n   ************* Only last 1 lines before error line shown.....\n   *************  57944   Sp-Floor 1 Recovery Room Sys-3 Flr-3 Sch-H HPlcmt-south ZN NECB System 3 PSZAvailability Manager List, !- Name\n   ** Warning ** IP: IDF line~57944 Alpha Argument length exceeds maximum, will be truncated=  Sp-Floor 1 Recovery Room Sys-3 Flr-3 Sch-H HPlcmt-south ZN NECB System 3 PSZAvailability Manager Lis\n   **   ~~~   ** Will be processed as Alpha=SP-FLOOR 1 RECOVERY ROOM SYS-3 FLR-3 SCH-H HPLCMT-SOUTH ZN NECB SYSTEM 3 PSZAVAILABILITY MANAGER LIST\n   ************* IDF Context for following error/warning message:\n   ************* Note -- lines truncated at 300 characters, if necessary...\n   *************  60138 AirLoopHVAC,\n   ************* indicated Name=Sp-Floor 1 Sterile Storage Sys-4 Flr-3 Sch-E HPlcmt-core ZN NECB System 4 PSZ\n   ************* Only last 3 lines before error line shown.....\n   *************  60139   Sp-Floor 1 Sterile Storage Sys-4 Flr-3 Sch-E HPlcmt-core ZN NECB System 4 PSZ, !- Name\n   *************  60140   ,                                       !- Controller List Name\n   *************  60141   Sp-Floor 1 Sterile Storage Sys-4 Flr-3 Sch-E HPlcmt-core ZN NECB System 4 PSZAvailability Manager List, !- Availability Manager List Name\n   ** Warning ** IP: IDF line~60141 Alpha Argument length exceeds maximum, will be truncated=  Sp-Floor 1 Sterile Storage Sys-4 Flr-3 Sch-E HPlcmt-core ZN NECB System 4 PSZAvailability Manager Lis\n   **   ~~~   ** Will be processed as Alpha=SP-FLOOR 1 STERILE STORAGE SYS-4 FLR-3 SCH-E HPLCMT-CORE ZN NECB SYSTEM 4 PSZAVAILABILITY MANAGER LIST\n   ************* IDF Context for following error/warning message:\n   ************* Note -- lines truncated at 300 characters, if necessary...\n   *************  60197 AvailabilityManagerAssignmentList,\n   ************* indicated Name=Sp-Floor 1 Sterile Storage Sys-4 Flr-3 Sch-E HPlcmt-core ZN NECB System 4 PSZAvailability Manager List\n   ************* Only last 1 lines before error line shown.....\n   *************  60198   Sp-Floor 1 Sterile Storage Sys-4 Flr-3 Sch-E HPlcmt-core ZN NECB System 4 PSZAvailability Manager List, !- Name\n   ** Warning ** IP: IDF line~60198 Alpha Argument length exceeds maximum, will be truncated=  Sp-Floor 1 Sterile Storage Sys-4 Flr-3 Sch-E HPlcmt-core ZN NECB System 4 PSZAvailability Manager Lis\n   **   ~~~   ** Will be processed as Alpha=SP-FLOOR 1 STERILE STORAGE SYS-4 FLR-3 SCH-E HPLCMT-CORE ZN NECB SYSTEM 4 PSZAVAILABILITY MANAGER LIST\n   ************* IDF Context for following error/warning message:\n   ************* Note -- lines truncated at 300 characters, if necessary...\n   *************  61426 AirLoopHVAC,\n   ************* indicated Name=Sp-Floor 1 Utility Janitor Sys-4 Flr-3 Sch-E HPlcmt-core ZN NECB System 4 PSZ\n   ************* Only last 3 lines before error line shown.....\n   *************  61427   Sp-Floor 1 Utility Janitor Sys-4 Flr-3 Sch-E HPlcmt-core ZN NECB System 4 PSZ, !- Name\n   *************  61428   ,                                       !- Controller List Name\n   *************  61429   Sp-Floor 1 Utility Janitor Sys-4 Flr-3 Sch-E HPlcmt-core ZN NECB System 4 PSZAvailability Manager List, !- Availability Manager List Name\n   ** Warning ** IP: IDF line~61429 Alpha Argument length exceeds maximum, will be truncated=  Sp-Floor 1 Utility Janitor Sys-4 Flr-3 Sch-E HPlcmt-core ZN NECB System 4 PSZAvailability Manager Lis\n   **   ~~~   ** Will be processed as Alpha=SP-FLOOR 1 UTILITY JANITOR SYS-4 FLR-3 SCH-E HPLCMT-CORE ZN NECB SYSTEM 4 PSZAVAILABILITY MANAGER LIST\n   ************* IDF Context for following error/warning message:\n   ************* Note -- lines truncated at 300 characters, if necessary...\n   *************  61485 AvailabilityManagerAssignmentList,\n   ************* indicated Name=Sp-Floor 1 Utility Janitor Sys-4 Flr-3 Sch-E HPlcmt-core ZN NECB System 4 PSZAvailability Manager List\n   ************* Only last 1 lines before error line shown.....\n   *************  61486   Sp-Floor 1 Utility Janitor Sys-4 Flr-3 Sch-E HPlcmt-core ZN NECB System 4 PSZAvailability Manager List, !- Name\n   ** Warning ** IP: IDF line~61486 Alpha Argument length exceeds maximum, will be truncated=  Sp-Floor 1 Utility Janitor Sys-4 Flr-3 Sch-E HPlcmt-core ZN NECB System 4 PSZAvailability Manager Lis\n   **   ~~~   ** Will be processed as Alpha=SP-FLOOR 1 UTILITY JANITOR SYS-4 FLR-3 SCH-E HPLCMT-CORE ZN NECB SYSTEM 4 PSZAVAILABILITY MANAGER LIST\n   ************* IDF Context for following error/warning message:\n   ************* Note -- lines truncated at 300 characters, if necessary...\n   *************  62714 AirLoopHVAC,\n   ************* indicated Name=Sp-Floor 2 Conference Toilet Sys-4 Flr-1 Sch-H HPlcmt-core ZN NECB System 4 PSZ\n   ************* Only last 3 lines before error line shown.....\n   *************  62715   Sp-Floor 2 Conference Toilet Sys-4 Flr-1 Sch-H HPlcmt-core ZN NECB System 4 PSZ, !- Name\n   *************  62716   ,                                       !- Controller List Name\n   *************  62717   Sp-Floor 2 Conference Toilet Sys-4 Flr-1 Sch-H HPlcmt-core ZN NECB System 4 PSZAvailability Manager List, !- Availability Manager List Name\n   ** Warning ** IP: IDF line~62717 Alpha Argument length exceeds maximum, will be truncated=  Sp-Floor 2 Conference Toilet Sys-4 Flr-1 Sch-H HPlcmt-core ZN NECB System 4 PSZAvailability Manager Lis\n   **   ~~~   ** Will be processed as Alpha=SP-FLOOR 2 CONFERENCE TOILET SYS-4 FLR-1 SCH-H HPLCMT-CORE ZN NECB SYSTEM 4 PSZAVAILABILITY MANAGER LIST\n   ************* IDF Context for following error/warning message:\n   ************* Note -- lines truncated at 300 characters, if necessary...\n   *************  62773 AvailabilityManagerAssignmentList,\n   ************* indicated Name=Sp-Floor 2 Conference Toilet Sys-4 Flr-1 Sch-H HPlcmt-core ZN NECB System 4 PSZAvailability Manager List\n   ************* Only last 1 lines before error line shown.....\n   *************  62774   Sp-Floor 2 Conference Toilet Sys-4 Flr-1 Sch-H HPlcmt-core ZN NECB System 4 PSZAvailability Manager List, !- Name\n   ** Warning ** IP: IDF line~62774 Alpha Argument length exceeds maximum, will be truncated=  Sp-Floor 2 Conference Toilet Sys-4 Flr-1 Sch-H HPlcmt-core ZN NECB System 4 PSZAvailability Manager Lis\n   **   ~~~   ** Will be processed as Alpha=SP-FLOOR 2 CONFERENCE TOILET SYS-4 FLR-1 SCH-H HPLCMT-CORE ZN NECB SYSTEM 4 PSZAVAILABILITY MANAGER LIST\n   ************* IDF Context for following error/warning message:\n   ************* Note -- lines truncated at 300 characters, if necessary...\n   *************  68510 AirLoopHVAC,\n   ************* indicated Name=Sp-Floor 2 Nurse Station 1 Sys-3 Flr-1 Sch-H HPlcmt-core ZN NECB System 3 PSZ\n   ************* Only last 3 lines before error line shown.....\n   *************  68511   Sp-Floor 2 Nurse Station 1 Sys-3 Flr-1 Sch-H HPlcmt-core ZN NECB System 3 PSZ, !- Name\n   *************  68512   ,                                       !- Controller List Name\n   *************  68513   Sp-Floor 2 Nurse Station 1 Sys-3 Flr-1 Sch-H HPlcmt-core ZN NECB System 3 PSZAvailability Manager List, !- Availability Manager List Name\n   ** Warning ** IP: IDF line~68513 Alpha Argument length exceeds maximum, will be truncated=  Sp-Floor 2 Nurse Station 1 Sys-3 Flr-1 Sch-H HPlcmt-core ZN NECB System 3 PSZAvailability Manager Lis\n   **   ~~~   ** Will be processed as Alpha=SP-FLOOR 2 NURSE STATION 1 SYS-3 FLR-1 SCH-H HPLCMT-CORE ZN NECB SYSTEM 3 PSZAVAILABILITY MANAGER LIST\n   ************* IDF Context for following error/warning message:\n   ************* Note -- lines truncated at 300 characters, if necessary...\n   *************  68569 AvailabilityManagerAssignmentList,\n   ************* indicated Name=Sp-Floor 2 Nurse Station 1 Sys-3 Flr-1 Sch-H HPlcmt-core ZN NECB System 3 PSZAvailability Manager List\n   ************* Only last 1 lines before error line shown.....\n   *************  68570   Sp-Floor 2 Nurse Station 1 Sys-3 Flr-1 Sch-H HPlcmt-core ZN NECB System 3 PSZAvailability Manager List, !- Name\n   ** Warning ** IP: IDF line~68570 Alpha Argument length exceeds maximum, will be truncated=  Sp-Floor 2 Nurse Station 1 Sys-3 Flr-1 Sch-H HPlcmt-core ZN NECB System 3 PSZAvailability Manager Lis\n   **   ~~~   ** Will be processed as Alpha=SP-FLOOR 2 NURSE STATION 1 SYS-3 FLR-1 SCH-H HPLCMT-CORE ZN NECB SYSTEM 3 PSZAVAILABILITY MANAGER LIST\n   ************* IDF Context for following error/warning message:\n   ************* Note -- lines truncated at 300 characters, if necessary...\n   *************  68832 AirLoopHVAC,\n   ************* indicated Name=Sp-Floor 2 Nurse Station 2 Sys-3 Flr-1 Sch-H HPlcmt-core ZN NECB System 3 PSZ\n   ************* Only last 3 lines before error line shown.....\n   *************  68833   Sp-Floor 2 Nurse Station 2 Sys-3 Flr-1 Sch-H HPlcmt-core ZN NECB System 3 PSZ, !- Name\n   *************  68834   ,                                       !- Controller List Name\n   *************  68835   Sp-Floor 2 Nurse Station 2 Sys-3 Flr-1 Sch-H HPlcmt-core ZN NECB System 3 PSZAvailability Manager List, !- Availability Manager List Name\n   ** Warning ** IP: IDF line~68835 Alpha Argument length exceeds maximum, will be truncated=  Sp-Floor 2 Nurse Station 2 Sys-3 Flr-1 Sch-H HPlcmt-core ZN NECB System 3 PSZAvailability Manager Lis\n   **   ~~~   ** Will be processed as Alpha=SP-FLOOR 2 NURSE STATION 2 SYS-3 FLR-1 SCH-H HPLCMT-CORE ZN NECB SYSTEM 3 PSZAVAILABILITY MANAGER LIST\n   ************* IDF Context for following error/warning message:\n   ************* Note -- lines truncated at 300 characters, if necessary...\n   *************  68891 AvailabilityManagerAssignmentList,\n   ************* indicated Name=Sp-Floor 2 Nurse Station 2 Sys-3 Flr-1 Sch-H HPlcmt-core ZN NECB System 3 PSZAvailability Manager List\n   ************* Only last 1 lines before error line shown.....\n   *************  68892   Sp-Floor 2 Nurse Station 2 Sys-3 Flr-1 Sch-H HPlcmt-core ZN NECB System 3 PSZAvailability Manager List, !- Name\n   ** Warning ** IP: IDF line~68892 Alpha Argument length exceeds maximum, will be truncated=  Sp-Floor 2 Nurse Station 2 Sys-3 Flr-1 Sch-H HPlcmt-core ZN NECB System 3 PSZAvailability Manager Lis\n   **   ~~~   ** Will be processed as Alpha=SP-FLOOR 2 NURSE STATION 2 SYS-3 FLR-1 SCH-H HPLCMT-CORE ZN NECB SYSTEM 3 PSZAVAILABILITY MANAGER LIST\n   ************* IDF Context for following error/warning message:\n   ************* Note -- lines truncated at 300 characters, if necessary...\n   *************  69154 AirLoopHVAC,\n   ************* indicated Name=Sp-Floor 2 Reception Hall Sys-3 Flr-1 Sch-H HPlcmt-south ZN NECB System 3 PSZ\n   ************* Only last 3 lines before error line shown.....\n   *************  69155   Sp-Floor 2 Reception Hall Sys-3 Flr-1 Sch-H HPlcmt-south ZN NECB System 3 PSZ, !- Name\n   *************  69156   ,                                       !- Controller List Name\n   *************  69157   Sp-Floor 2 Reception Hall Sys-3 Flr-1 Sch-H HPlcmt-south ZN NECB System 3 PSZAvailability Manager List, !- Availability Manager List Name\n   ** Warning ** IP: IDF line~69157 Alpha Argument length exceeds maximum, will be truncated=  Sp-Floor 2 Reception Hall Sys-3 Flr-1 Sch-H HPlcmt-south ZN NECB System 3 PSZAvailability Manager Lis\n   **   ~~~   ** Will be processed as Alpha=SP-FLOOR 2 RECEPTION HALL SYS-3 FLR-1 SCH-H HPLCMT-SOUTH ZN NECB SYSTEM 3 PSZAVAILABILITY MANAGER LIST\n   ************* IDF Context for following error/warning message:\n   ************* Note -- lines truncated at 300 characters, if necessary...\n   *************  69213 AvailabilityManagerAssignmentList,\n   ************* indicated Name=Sp-Floor 2 Reception Hall Sys-3 Flr-1 Sch-H HPlcmt-south ZN NECB System 3 PSZAvailability Manager List\n   ************* Only last 1 lines before error line shown.....\n   *************  69214   Sp-Floor 2 Reception Hall Sys-3 Flr-1 Sch-H HPlcmt-south ZN NECB System 3 PSZAvailability Manager List, !- Name\n   ** Warning ** IP: IDF line~69214 Alpha Argument length exceeds maximum, will be truncated=  Sp-Floor 2 Reception Hall Sys-3 Flr-1 Sch-H HPlcmt-south ZN NECB System 3 PSZAvailability Manager Lis\n   **   ~~~   ** Will be processed as Alpha=SP-FLOOR 2 RECEPTION HALL SYS-3 FLR-1 SCH-H HPLCMT-SOUTH ZN NECB SYSTEM 3 PSZAVAILABILITY MANAGER LIST\n   ************* IDF Context for following error/warning message:\n   ************* Note -- lines truncated at 300 characters, if necessary...\n   *************  69798 AirLoopHVAC,\n   ************* indicated Name=Sp-Floor 2 Reception Toilet Sys-3 Flr-1 Sch-H HPlcmt-core ZN NECB System 3 PSZ\n   ************* Only last 3 lines before error line shown.....\n   *************  69799   Sp-Floor 2 Reception Toilet Sys-3 Flr-1 Sch-H HPlcmt-core ZN NECB System 3 PSZ, !- Name\n   *************  69800   ,                                       !- Controller List Name\n   *************  69801   Sp-Floor 2 Reception Toilet Sys-3 Flr-1 Sch-H HPlcmt-core ZN NECB System 3 PSZAvailability Manager List, !- Availability Manager List Name\n   ** Warning ** IP: IDF line~69801 Alpha Argument length exceeds maximum, will be truncated=  Sp-Floor 2 Reception Toilet Sys-3 Flr-1 Sch-H HPlcmt-core ZN NECB System 3 PSZAvailability Manager Lis\n   **   ~~~   ** Will be processed as Alpha=SP-FLOOR 2 RECEPTION TOILET SYS-3 FLR-1 SCH-H HPLCMT-CORE ZN NECB SYSTEM 3 PSZAVAILABILITY MANAGER LIST\n   ************* IDF Context for following error/warning message:\n   ************* Note -- lines truncated at 300 characters, if necessary...\n   *************  69857 AvailabilityManagerAssignmentList,\n   ************* indicated Name=Sp-Floor 2 Reception Toilet Sys-3 Flr-1 Sch-H HPlcmt-core ZN NECB System 3 PSZAvailability Manager List\n   ************* Only last 1 lines before error line shown.....\n   *************  69858   Sp-Floor 2 Reception Toilet Sys-3 Flr-1 Sch-H HPlcmt-core ZN NECB System 3 PSZAvailability Manager List, !- Name\n   ** Warning ** IP: IDF line~69858 Alpha Argument length exceeds maximum, will be truncated=  Sp-Floor 2 Reception Toilet Sys-3 Flr-1 Sch-H HPlcmt-core ZN NECB System 3 PSZAvailability Manager Lis\n   **   ~~~   ** Will be processed as Alpha=SP-FLOOR 2 RECEPTION TOILET SYS-3 FLR-1 SCH-H HPLCMT-CORE ZN NECB SYSTEM 3 PSZAVAILABILITY MANAGER LIST\n   ************* IDF Context for following error/warning message:\n   ************* Note -- lines truncated at 300 characters, if necessary...\n   *************  72696 AirLoopHVAC,\n   ************* indicated Name=Sp-Floor 3 Mechanical Hall Sys-3 Flr-2 Sch-H HPlcmt-core ZN NECB System 3 PSZ\n   ************* Only last 3 lines before error line shown.....\n   *************  72697   Sp-Floor 3 Mechanical Hall Sys-3 Flr-2 Sch-H HPlcmt-core ZN NECB System 3 PSZ, !- Name\n   *************  72698   ,                                       !- Controller List Name\n   *************  72699   Sp-Floor 3 Mechanical Hall Sys-3 Flr-2 Sch-H HPlcmt-core ZN NECB System 3 PSZAvailability Manager List, !- Availability Manager List Name\n   ** Warning ** IP: IDF line~72699 Alpha Argument length exceeds maximum, will be truncated=  Sp-Floor 3 Mechanical Hall Sys-3 Flr-2 Sch-H HPlcmt-core ZN NECB System 3 PSZAvailability Manager Lis\n   **   ~~~   ** Will be processed as Alpha=SP-FLOOR 3 MECHANICAL HALL SYS-3 FLR-2 SCH-H HPLCMT-CORE ZN NECB SYSTEM 3 PSZAVAILABILITY MANAGER LIST\n   ************* IDF Context for following error/warning message:\n   ************* Note -- lines truncated at 300 characters, if necessary...\n   *************  72755 AvailabilityManagerAssignmentList,\n   ************* indicated Name=Sp-Floor 3 Mechanical Hall Sys-3 Flr-2 Sch-H HPlcmt-core ZN NECB System 3 PSZAvailability Manager List\n   ************* Only last 1 lines before error line shown.....\n   *************  72756   Sp-Floor 3 Mechanical Hall Sys-3 Flr-2 Sch-H HPlcmt-core ZN NECB System 3 PSZAvailability Manager List, !- Name\n   ** Warning ** IP: IDF line~72756 Alpha Argument length exceeds maximum, will be truncated=  Sp-Floor 3 Mechanical Hall Sys-3 Flr-2 Sch-H HPlcmt-core ZN NECB System 3 PSZAvailability Manager Lis\n   **   ~~~   ** Will be processed as Alpha=SP-FLOOR 3 MECHANICAL HALL SYS-3 FLR-2 SCH-H HPLCMT-CORE ZN NECB SYSTEM 3 PSZAVAILABILITY MANAGER LIST\n   ************* IDF Context for following error/warning message:\n   ************* Note -- lines truncated at 300 characters, if necessary...\n   *************  73662 AirLoopHVAC,\n   ************* indicated Name=Sp-Floor 3 Physical Therapy 1 Sys-3 Flr-2 Sch-C HPlcmt-south ZN NECB System 3 PSZ\n   ************* Only last 3 lines before error line shown.....\n   *************  73663   Sp-Floor 3 Physical Therapy 1 Sys-3 Flr-2 Sch-C HPlcmt-south ZN NECB System 3 PSZ, !- Name\n   *************  73664   ,                                       !- Controller List Name\n   *************  73665   Sp-Floor 3 Physical Therapy 1 Sys-3 Flr-2 Sch-C HPlcmt-south ZN NECB System 3 PSZAvailability Manager List, !- Availability Manager List Name\n   ** Warning ** IP: IDF line~73665 Alpha Argument length exceeds maximum, will be truncated=  Sp-Floor 3 Physical Therapy 1 Sys-3 Flr-2 Sch-C HPlcmt-south ZN NECB System 3 PSZAvailability Manager Lis\n   **   ~~~   ** Will be processed as Alpha=SP-FLOOR 3 PHYSICAL THERAPY 1 SYS-3 FLR-2 SCH-C HPLCMT-SOUTH ZN NECB SYSTEM 3 PSZAVAILABILITY MANAGER LIST\n   ************* IDF Context for following error/warning message:\n   ************* Note -- lines truncated at 300 characters, if necessary...\n   *************  73662 AirLoopHVAC,\n   ************* indicated Name=Sp-Floor 3 Physical Therapy 1 Sys-3 Flr-2 Sch-C HPlcmt-south ZN NECB System 3 PSZ\n   ************* Only last 10 lines before error line shown.....\n   *************  73663   Sp-Floor 3 Physical Therapy 1 Sys-3 Flr-2 Sch-C HPlcmt-south ZN NECB System 3 PSZ, !- Name\n   *************  73664   ,                                       !- Controller List Name\n   *************  73665   Sp-Floor 3 Physical Therapy 1 Sys-3 Flr-2 Sch-C HPlcmt-south ZN NECB System 3 PSZAvailability Manager List, !- Availability Manager List Name\n   *************  73666   AutoSize,                               !- Design Supply Air Flow Rate {m3/s}\n   *************  73667   Sp-Floor 3 Physical Therapy 1 Sys-3 Flr-2 Sch-C HPlcmt-south ZN NECB System 3 PSZ Supply Branches, !- Branch List Name\n   *************  73668   ,                                       !- Connector List Name\n   *************  73669   Node 372,                               !- Supply Side Inlet Node Name\n   *************  73670   Node 375,                               !- Demand Side Outlet Node Name\n   *************  73671   Sp-Floor 3 Physical Therapy 1 Sys-3 Flr-2 Sch-C HPlcmt-south ZN NECB System 3 PSZ Demand Inlet Nodes, !- Demand Side Inlet Node Names\n   *************  73672   Sp-Floor 3 Physical Therapy 1 Sys-3 Flr-2 Sch-C HPlcmt-south ZN NECB System 3 PSZ Supply Outlet Nodes; !- Supply Side Outlet Node Names\n   ** Warning ** IP: IDF line~73672 Alpha Argument length exceeds maximum, will be truncated=  Sp-Floor 3 Physical Therapy 1 Sys-3 Flr-2 Sch-C HPlcmt-south ZN NECB System 3 PSZ Supply Outlet Node\n   **   ~~~   ** Will be processed as Alpha=SP-FLOOR 3 PHYSICAL THERAPY 1 SYS-3 FLR-2 SCH-C HPLCMT-SOUTH ZN NECB SYSTEM 3 PSZ SUPPLY OUTLET NODES\n   ************* IDF Context for following error/warning message:\n   ************* Note -- lines truncated at 300 characters, if necessary...\n   *************  73674 NodeList,\n   ************* indicated Name=Sp-Floor 3 Physical Therapy 1 Sys-3 Flr-2 Sch-C HPlcmt-south ZN NECB System 3 PSZ Supply Outlet Nodes\n   ************* Only last 1 lines before error line shown.....\n   *************  73675   Sp-Floor 3 Physical Therapy 1 Sys-3 Flr-2 Sch-C HPlcmt-south ZN NECB System 3 PSZ Supply Outlet Nodes, !- Name\n   ** Warning ** IP: IDF line~73675 Alpha Argument length exceeds maximum, will be truncated=  Sp-Floor 3 Physical Therapy 1 Sys-3 Flr-2 Sch-C HPlcmt-south ZN NECB System 3 PSZ Supply Outlet Node\n   **   ~~~   ** Will be processed as Alpha=SP-FLOOR 3 PHYSICAL THERAPY 1 SYS-3 FLR-2 SCH-C HPLCMT-SOUTH ZN NECB SYSTEM 3 PSZ SUPPLY OUTLET NODES\n   ************* IDF Context for following error/warning message:\n   ************* Note -- lines truncated at 300 characters, if necessary...\n   *************  73721 AvailabilityManagerAssignmentList,\n   ************* indicated Name=Sp-Floor 3 Physical Therapy 1 Sys-3 Flr-2 Sch-C HPlcmt-south ZN NECB System 3 PSZAvailability Manager List\n   ************* Only last 1 lines before error line shown.....\n   *************  73722   Sp-Floor 3 Physical Therapy 1 Sys-3 Flr-2 Sch-C HPlcmt-south ZN NECB System 3 PSZAvailability Manager List, !- Name\n   ** Warning ** IP: IDF line~73722 Alpha Argument length exceeds maximum, will be truncated=  Sp-Floor 3 Physical Therapy 1 Sys-3 Flr-2 Sch-C HPlcmt-south ZN NECB System 3 PSZAvailability Manager Lis\n   **   ~~~   ** Will be processed as Alpha=SP-FLOOR 3 PHYSICAL THERAPY 1 SYS-3 FLR-2 SCH-C HPLCMT-SOUTH ZN NECB SYSTEM 3 PSZAVAILABILITY MANAGER LIST\n   ************* IDF Context for following error/warning message:\n   ************* Note -- lines truncated at 300 characters, if necessary...\n   *************  73966 AirLoopHVAC:SupplyPath,\n   ************* indicated Name=Sp-Floor 3 Physical Therapy 1 Sys-3 Flr-2 Sch-C HPlcmt-south ZN NECB System 3 PSZ Node 374 Supply Path\n   ************* Only last 1 lines before error line shown.....\n   *************  73967   Sp-Floor 3 Physical Therapy 1 Sys-3 Flr-2 Sch-C HPlcmt-south ZN NECB System 3 PSZ Node 374 Supply Path, !- Name\n   ** Warning ** IP: IDF line~73967 Alpha Argument length exceeds maximum, will be truncated=  Sp-Floor 3 Physical Therapy 1 Sys-3 Flr-2 Sch-C HPlcmt-south ZN NECB System 3 PSZ Node 374 Supply Pat\n   **   ~~~   ** Will be processed as Alpha=SP-FLOOR 3 PHYSICAL THERAPY 1 SYS-3 FLR-2 SCH-C HPLCMT-SOUTH ZN NECB SYSTEM 3 PSZ NODE 374 SUPPLY PATH\n   ************* IDF Context for following error/warning message:\n   ************* Note -- lines truncated at 300 characters, if necessary...\n   *************  73988 AirLoopHVAC,\n   ************* indicated Name=Sp-Floor 3 Physical Therapy 2 Sys-3 Flr-2 Sch-C HPlcmt-core ZN NECB System 3 PSZ\n   ************* Only last 3 lines before error line shown.....\n   *************  73989   Sp-Floor 3 Physical Therapy 2 Sys-3 Flr-2 Sch-C HPlcmt-core ZN NECB System 3 PSZ, !- Name\n   *************  73990   ,                                       !- Controller List Name\n   *************  73991   Sp-Floor 3 Physical Therapy 2 Sys-3 Flr-2 Sch-C HPlcmt-core ZN NECB System 3 PSZAvailability Manager List, !- Availability Manager List Name\n   ** Warning ** IP: IDF line~73991 Alpha Argument length exceeds maximum, will be truncated=  Sp-Floor 3 Physical Therapy 2 Sys-3 Flr-2 Sch-C HPlcmt-core ZN NECB System 3 PSZAvailability Manager Lis\n   **   ~~~   ** Will be processed as Alpha=SP-FLOOR 3 PHYSICAL THERAPY 2 SYS-3 FLR-2 SCH-C HPLCMT-CORE ZN NECB SYSTEM 3 PSZAVAILABILITY MANAGER LIST\n   ************* IDF Context for following error/warning message:\n   ************* Note -- lines truncated at 300 characters, if necessary...\n   *************  74047 AvailabilityManagerAssignmentList,\n   ************* indicated Name=Sp-Floor 3 Physical Therapy 2 Sys-3 Flr-2 Sch-C HPlcmt-core ZN NECB System 3 PSZAvailability Manager List\n   ************* Only last 1 lines before error line shown.....\n   *************  74048   Sp-Floor 3 Physical Therapy 2 Sys-3 Flr-2 Sch-C HPlcmt-core ZN NECB System 3 PSZAvailability Manager List, !- Name\n   ** Warning ** IP: IDF line~74048 Alpha Argument length exceeds maximum, will be truncated=  Sp-Floor 3 Physical Therapy 2 Sys-3 Flr-2 Sch-C HPlcmt-core ZN NECB System 3 PSZAvailability Manager Lis\n   **   ~~~   ** Will be processed as Alpha=SP-FLOOR 3 PHYSICAL THERAPY 2 SYS-3 FLR-2 SCH-C HPLCMT-CORE ZN NECB SYSTEM 3 PSZAVAILABILITY MANAGER LIST\n   ************* IDF Context for following error/warning message:\n   ************* Note -- lines truncated at 300 characters, if necessary...\n   *************  74047 AvailabilityManagerAssignmentList,\n   ************* indicated Name=Sp-Floor 3 Physical Therapy 2 Sys-3 Flr-2 Sch-C HPlcmt-core ZN NECB System 3 PSZAvailability Manager List\n   ************* Only last 3 lines before error line shown.....\n   *************  74048   Sp-Floor 3 Physical Therapy 2 Sys-3 Flr-2 Sch-C HPlcmt-core ZN NECB System 3 PSZAvailability Manager List, !- Name\n   *************  74049   AvailabilityManager:Scheduled,          !- Availability Manager Object Type 1\n   *************  74050   Sp-Floor 3 Physical Therapy 2 Sys-3 Flr-2 Sch-C HPlcmt-core ZN NECB System 3 PSZ Availability Manager; !- Availability Manager Name 1\n   ** Warning ** IP: IDF line~74050 Alpha Argument length exceeds maximum, will be truncated=  Sp-Floor 3 Physical Therapy 2 Sys-3 Flr-2 Sch-C HPlcmt-core ZN NECB System 3 PSZ Availability Manage\n   **   ~~~   ** Will be processed as Alpha=SP-FLOOR 3 PHYSICAL THERAPY 2 SYS-3 FLR-2 SCH-C HPLCMT-CORE ZN NECB SYSTEM 3 PSZ AVAILABILITY MANAGER\n   ************* IDF Context for following error/warning message:\n   ************* Note -- lines truncated at 300 characters, if necessary...\n   *************  74052 AvailabilityManager:Scheduled,\n   ************* indicated Name=Sp-Floor 3 Physical Therapy 2 Sys-3 Flr-2 Sch-C HPlcmt-core ZN NECB System 3 PSZ Availability Manager\n   ************* Only last 1 lines before error line shown.....\n   *************  74053   Sp-Floor 3 Physical Therapy 2 Sys-3 Flr-2 Sch-C HPlcmt-core ZN NECB System 3 PSZ Availability Manager, !- Name\n   ** Warning ** IP: IDF line~74053 Alpha Argument length exceeds maximum, will be truncated=  Sp-Floor 3 Physical Therapy 2 Sys-3 Flr-2 Sch-C HPlcmt-core ZN NECB System 3 PSZ Availability Manage\n   **   ~~~   ** Will be processed as Alpha=SP-FLOOR 3 PHYSICAL THERAPY 2 SYS-3 FLR-2 SCH-C HPLCMT-CORE ZN NECB SYSTEM 3 PSZ AVAILABILITY MANAGER\n   ************* IDF Context for following error/warning message:\n   ************* Note -- lines truncated at 300 characters, if necessary...\n   *************  74288 AirLoopHVAC:SupplyPath,\n   ************* indicated Name=Sp-Floor 3 Physical Therapy 2 Sys-3 Flr-2 Sch-C HPlcmt-core ZN NECB System 3 PSZ Node 385 Supply Path\n   ************* Only last 1 lines before error line shown.....\n   *************  74289   Sp-Floor 3 Physical Therapy 2 Sys-3 Flr-2 Sch-C HPlcmt-core ZN NECB System 3 PSZ Node 385 Supply Path, !- Name\n   ** Warning ** IP: IDF line~74289 Alpha Argument length exceeds maximum, will be truncated=  Sp-Floor 3 Physical Therapy 2 Sys-3 Flr-2 Sch-C HPlcmt-core ZN NECB System 3 PSZ Node 385 Supply Pat\n   **   ~~~   ** Will be processed as Alpha=SP-FLOOR 3 PHYSICAL THERAPY 2 SYS-3 FLR-2 SCH-C HPLCMT-CORE ZN NECB SYSTEM 3 PSZ NODE 385 SUPPLY PATH\n   ************* IDF Context for following error/warning message:\n   ************* Note -- lines truncated at 300 characters, if necessary...\n   *************  75276 AirLoopHVAC,\n   ************* indicated Name=Sp-Floor 3 Undeveloped 1 Sys-4 Flr-2 Sch-E HPlcmt-south ZN NECB System 4 PSZ\n   ************* Only last 3 lines before error line shown.....\n   *************  75277   Sp-Floor 3 Undeveloped 1 Sys-4 Flr-2 Sch-E HPlcmt-south ZN NECB System 4 PSZ, !- Name\n   *************  75278   ,                                       !- Controller List Name\n   *************  75279   Sp-Floor 3 Undeveloped 1 Sys-4 Flr-2 Sch-E HPlcmt-south ZN NECB System 4 PSZAvailability Manager List, !- Availability Manager List Name\n   ** Warning ** IP: IDF line~75279 Alpha Argument length exceeds maximum, will be truncated=  Sp-Floor 3 Undeveloped 1 Sys-4 Flr-2 Sch-E HPlcmt-south ZN NECB System 4 PSZAvailability Manager Lis\n   **   ~~~   ** Will be processed as Alpha=SP-FLOOR 3 UNDEVELOPED 1 SYS-4 FLR-2 SCH-E HPLCMT-SOUTH ZN NECB SYSTEM 4 PSZAVAILABILITY MANAGER LIST\n   ************* IDF Context for following error/warning message:\n   ************* Note -- lines truncated at 300 characters, if necessary...\n   *************  75335 AvailabilityManagerAssignmentList,\n   ************* indicated Name=Sp-Floor 3 Undeveloped 1 Sys-4 Flr-2 Sch-E HPlcmt-south ZN NECB System 4 PSZAvailability Manager List\n   ************* Only last 1 lines before error line shown.....\n   *************  75336   Sp-Floor 3 Undeveloped 1 Sys-4 Flr-2 Sch-E HPlcmt-south ZN NECB System 4 PSZAvailability Manager List, !- Name\n   ** Warning ** IP: IDF line~75336 Alpha Argument length exceeds maximum, will be truncated=  Sp-Floor 3 Undeveloped 1 Sys-4 Flr-2 Sch-E HPlcmt-south ZN NECB System 4 PSZAvailability Manager Lis\n   **   ~~~   ** Will be processed as Alpha=SP-FLOOR 3 UNDEVELOPED 1 SYS-4 FLR-2 SCH-E HPLCMT-SOUTH ZN NECB SYSTEM 4 PSZAVAILABILITY MANAGER LIST\n   ************* IDF Context for following error/warning message:\n   ************* Note -- lines truncated at 300 characters, if necessary...\n   *************  75602 AirLoopHVAC,\n   ************* indicated Name=Sp-Floor 3 Undeveloped 2 Sys-4 Flr-2 Sch-E HPlcmt-south ZN NECB System 4 PSZ\n   ************* Only last 3 lines before error line shown.....\n   *************  75603   Sp-Floor 3 Undeveloped 2 Sys-4 Flr-2 Sch-E HPlcmt-south ZN NECB System 4 PSZ, !- Name\n   *************  75604   ,                                       !- Controller List Name\n   *************  75605   Sp-Floor 3 Undeveloped 2 Sys-4 Flr-2 Sch-E HPlcmt-south ZN NECB System 4 PSZAvailability Manager List, !- Availability Manager List Name\n   ** Warning ** IP: IDF line~75605 Alpha Argument length exceeds maximum, will be truncated=  Sp-Floor 3 Undeveloped 2 Sys-4 Flr-2 Sch-E HPlcmt-south ZN NECB System 4 PSZAvailability Manager Lis\n   **   ~~~   ** Will be processed as Alpha=SP-FLOOR 3 UNDEVELOPED 2 SYS-4 FLR-2 SCH-E HPLCMT-SOUTH ZN NECB SYSTEM 4 PSZAVAILABILITY MANAGER LIST\n   ************* IDF Context for following error/warning message:\n   ************* Note -- lines truncated at 300 characters, if necessary...\n   *************  75661 AvailabilityManagerAssignmentList,\n   ************* indicated Name=Sp-Floor 3 Undeveloped 2 Sys-4 Flr-2 Sch-E HPlcmt-south ZN NECB System 4 PSZAvailability Manager List\n   ************* Only last 1 lines before error line shown.....\n   *************  75662   Sp-Floor 3 Undeveloped 2 Sys-4 Flr-2 Sch-E HPlcmt-south ZN NECB System 4 PSZAvailability Manager List, !- Name\n   ** Warning ** IP: IDF line~75662 Alpha Argument length exceeds maximum, will be truncated=  Sp-Floor 3 Undeveloped 2 Sys-4 Flr-2 Sch-E HPlcmt-south ZN NECB System 4 PSZAvailability Manager Lis\n   **   ~~~   ** Will be processed as Alpha=SP-FLOOR 3 UNDEVELOPED 2 SYS-4 FLR-2 SCH-E HPLCMT-SOUTH ZN NECB SYSTEM 4 PSZAVAILABILITY MANAGER LIST\n   ************* Beginning Zone Sizing Calculations\n   ** Warning ** ProcessScheduleInput: Schedule:Day:Interval=\"ECONOMIZER MAX OA FRACTION 100 PCT DEFAULT\", Blank Schedule Type Limits Name input -- will not be validated.\n   ** Warning ** ProcessScheduleInput: Schedule:Day:Interval=\"SCHEDULE DAY 1\", Blank Schedule Type Limits Name input -- will not be validated.\n   ** Warning ** ProcessScheduleInput: Schedule:Day:Interval=\"SCHEDULE DAY 10\", Blank Schedule Type Limits Name input -- will not be validated.\n   ** Warning ** ProcessScheduleInput: Schedule:Day:Interval=\"SCHEDULE DAY 100\", Blank Schedule Type Limits Name input -- will not be validated.\n   ** Warning ** ProcessScheduleInput: Schedule:Day:Interval=\"SCHEDULE DAY 101\", Blank Schedule Type Limits Name input -- will not be validated.\n   ** Warning ** ProcessScheduleInput: Schedule:Day:Interval=\"SCHEDULE DAY 102\", Blank Schedule Type Limits Name input -- will not be validated.\n   ** Warning ** ProcessScheduleInput: Schedule:Day:Interval=\"SCHEDULE DAY 103\", Blank Schedule Type Limits Name input -- will not be validated.\n   ** Warning ** ProcessScheduleInput: Schedule:Day:Interval=\"SCHEDULE DAY 104\", Blank Schedule Type Limits Name input -- will not be validated.\n   ** Warning ** ProcessScheduleInput: Schedule:Day:Interval=\"SCHEDULE DAY 105\", Blank Schedule Type Limits Name input -- will not be validated.\n   ** Warning ** ProcessScheduleInput: Schedule:Day:Interval=\"SCHEDULE DAY 106\", Blank Schedule Type Limits Name input -- will not be validated.\n   ** Warning ** ProcessScheduleInput: Schedule:Day:Interval=\"SCHEDULE DAY 107\", Blank Schedule Type Limits Name input -- will not be validated.\n   ** Warning ** ProcessScheduleInput: Schedule:Day:Interval=\"SCHEDULE DAY 108\", Blank Schedule Type Limits Name input -- will not be validated.\n   ** Warning ** ProcessScheduleInput: Schedule:Day:Interval=\"SCHEDULE DAY 109\", Blank Schedule Type Limits Name input -- will not be validated.\n   ** Warning ** ProcessScheduleInput: Schedule:Day:Interval=\"SCHEDULE DAY 11\", Blank Schedule Type Limits Name input -- will not be validated.\n   ** Warning ** ProcessScheduleInput: Schedule:Day:Interval=\"SCHEDULE DAY 110\", Blank Schedule Type Limits Name input -- will not be validated.\n   ** Warning ** ProcessScheduleInput: Schedule:Day:Interval=\"SCHEDULE DAY 111\", Blank Schedule Type Limits Name input -- will not be validated.\n   ** Warning ** ProcessScheduleInput: Schedule:Day:Interval=\"SCHEDULE DAY 112\", Blank Schedule Type Limits Name input -- will not be validated.\n   ** Warning ** ProcessScheduleInput: Schedule:Day:Interval=\"SCHEDULE DAY 113\", Blank Schedule Type Limits Name input -- will not be validated.\n   ** Warning ** ProcessScheduleInput: Schedule:Day:Interval=\"SCHEDULE DAY 114\", Blank Schedule Type Limits Name input -- will not be validated.\n   ** Warning ** ProcessScheduleInput: Schedule:Day:Interval=\"SCHEDULE DAY 115\", Blank Schedule Type Limits Name input -- will not be validated.\n   ** Warning ** ProcessScheduleInput: Schedule:Day:Interval=\"SCHEDULE DAY 116\", Blank Schedule Type Limits Name input -- will not be validated.\n   ** Warning ** ProcessScheduleInput: Schedule:Day:Interval=\"SCHEDULE DAY 117\", Blank Schedule Type Limits Name input -- will not be validated.\n   ** Warning ** ProcessScheduleInput: Schedule:Day:Interval=\"SCHEDULE DAY 118\", Blank Schedule Type Limits Name input -- will not be validated.\n   ** Warning ** ProcessScheduleInput: Schedule:Day:Interval=\"SCHEDULE DAY 119\", Blank Schedule Type Limits Name input -- will not be validated.\n   ** Warning ** ProcessScheduleInput: Schedule:Day:Interval=\"SCHEDULE DAY 12\", Blank Schedule Type Limits Name input -- will not be validated.\n   ** Warning ** ProcessScheduleInput: Schedule:Day:Interval=\"SCHEDULE DAY 120\", Blank Schedule Type Limits Name input -- will not be validated.\n   ** Warning ** ProcessScheduleInput: Schedule:Day:Interval=\"SCHEDULE DAY 121\", Blank Schedule Type Limits Name input -- will not be validated.\n   ** Warning ** ProcessScheduleInput: Schedule:Day:Interval=\"SCHEDULE DAY 122\", Blank Schedule Type Limits Name input -- will not be validated.\n   ** Warning ** ProcessScheduleInput: Schedule:Day:Interval=\"SCHEDULE DAY 123\", Blank Schedule Type Limits Name input -- will not be validated.\n   ** Warning ** ProcessScheduleInput: Schedule:Day:Interval=\"SCHEDULE DAY 124\", Blank Schedule Type Limits Name input -- will not be validated.\n   ** Warning ** ProcessScheduleInput: Schedule:Day:Interval=\"SCHEDULE DAY 125\", Blank Schedule Type Limits Name input -- will not be validated.\n   ** Warning ** ProcessScheduleInput: Schedule:Day:Interval=\"SCHEDULE DAY 126\", Blank Schedule Type Limits Name input -- will not be validated.\n   ** Warning ** ProcessScheduleInput: Schedule:Day:Interval=\"SCHEDULE DAY 127\", Blank Schedule Type Limits Name input -- will not be validated.\n   ** Warning ** ProcessScheduleInput: Schedule:Day:Interval=\"SCHEDULE DAY 128\", Blank Schedule Type Limits Name input -- will not be validated.\n   ** Warning ** ProcessScheduleInput: Schedule:Day:Interval=\"SCHEDULE DAY 129\", Blank Schedule Type Limits Name input -- will not be validated.\n   ** Warning ** ProcessScheduleInput: Schedule:Day:Interval=\"SCHEDULE DAY 13\", Blank Schedule Type Limits Name input -- will not be validated.\n   ** Warning ** ProcessScheduleInput: Schedule:Day:Interval=\"SCHEDULE DAY 130\", Blank Schedule Type Limits Name input -- will not be validated.\n   ** Warning ** ProcessScheduleInput: Schedule:Day:Interval=\"SCHEDULE DAY 131\", Blank Schedule Type Limits Name input -- will not be validated.\n   ** Warning ** ProcessScheduleInput: Schedule:Day:Interval=\"SCHEDULE DAY 132\", Blank Schedule Type Limits Name input -- will not be validated.\n   ** Warning ** ProcessScheduleInput: Schedule:Day:Interval=\"SCHEDULE DAY 133\", Blank Schedule Type Limits Name input -- will not be validated.\n   ** Warning ** ProcessScheduleInput: Schedule:Day:Interval=\"SCHEDULE DAY 134\", Blank Schedule Type Limits Name input -- will not be validated.\n   ** Warning ** ProcessScheduleInput: Schedule:Day:Interval=\"SCHEDULE DAY 135\", Blank Schedule Type Limits Name input -- will not be validated.\n   ** Warning ** ProcessScheduleInput: Schedule:Day:Interval=\"SCHEDULE DAY 136\", Blank Schedule Type Limits Name input -- will not be validated.\n   ** Warning ** ProcessScheduleInput: Schedule:Day:Interval=\"SCHEDULE DAY 137\", Blank Schedule Type Limits Name input -- will not be validated.\n   ** Warning ** ProcessScheduleInput: Schedule:Day:Interval=\"SCHEDULE DAY 138\", Blank Schedule Type Limits Name input -- will not be validated.\n   ** Warning ** ProcessScheduleInput: Schedule:Day:Interval=\"SCHEDULE DAY 139\", Blank Schedule Type Limits Name input -- will not be validated.\n   ** Warning ** ProcessScheduleInput: Schedule:Day:Interval=\"SCHEDULE DAY 14\", Blank Schedule Type Limits Name input -- will not be validated.\n   ** Warning ** ProcessScheduleInput: Schedule:Day:Interval=\"SCHEDULE DAY 140\", Blank Schedule Type Limits Name input -- will not be validated.\n   ** Warning ** ProcessScheduleInput: Schedule:Day:Interval=\"SCHEDULE DAY 141\", Blank Schedule Type Limits Name input -- will not be validated.\n   ** Warning ** ProcessScheduleInput: Schedule:Day:Interval=\"SCHEDULE DAY 142\", Blank Schedule Type Limits Name input -- will not be validated.\n   ** Warning ** ProcessScheduleInput: Schedule:Day:Interval=\"SCHEDULE DAY 143\", Blank Schedule Type Limits Name input -- will not be validated.\n   ** Warning ** ProcessScheduleInput: Schedule:Day:Interval=\"SCHEDULE DAY 144\", Blank Schedule Type Limits Name input -- will not be validated.\n   ** Warning ** ProcessScheduleInput: Schedule:Day:Interval=\"SCHEDULE DAY 145\", Blank Schedule Type Limits Name input -- will not be validated.\n   ** Warning ** ProcessScheduleInput: Schedule:Day:Interval=\"SCHEDULE DAY 146\", Blank Schedule Type Limits Name input -- will not be validated.\n   ** Warning ** ProcessScheduleInput: Schedule:Day:Interval=\"SCHEDULE DAY 147\", Blank Schedule Type Limits Name input -- will not be validated.\n   ** Warning ** ProcessScheduleInput: Schedule:Day:Interval=\"SCHEDULE DAY 148\", Blank Schedule Type Limits Name input -- will not be validated.\n   ** Warning ** ProcessScheduleInput: Schedule:Day:Interval=\"SCHEDULE DAY 149\", Blank Schedule Type Limits Name input -- will not be validated.\n   ** Warning ** ProcessScheduleInput: Schedule:Day:Interval=\"SCHEDULE DAY 15\", Blank Schedule Type Limits Name input -- will not be validated.\n   ** Warning ** ProcessScheduleInput: Schedule:Day:Interval=\"SCHEDULE DAY 150\", Blank Schedule Type Limits Name input -- will not be validated.\n   ** Warning ** ProcessScheduleInput: Schedule:Day:Interval=\"SCHEDULE DAY 151\", Blank Schedule Type Limits Name input -- will not be validated.\n   ** Warning ** ProcessScheduleInput: Schedule:Day:Interval=\"SCHEDULE DAY 152\", Blank Schedule Type Limits Name input -- will not be validated.\n   ** Warning ** ProcessScheduleInput: Schedule:Day:Interval=\"SCHEDULE DAY 153\", Blank Schedule Type Limits Name input -- will not be validated.\n   ** Warning ** ProcessScheduleInput: Schedule:Day:Interval=\"SCHEDULE DAY 154\", Blank Schedule Type Limits Name input -- will not be validated.\n   ** Warning ** ProcessScheduleInput: Schedule:Day:Interval=\"SCHEDULE DAY 155\", Blank Schedule Type Limits Name input -- will not be validated.\n   ** Warning ** ProcessScheduleInput: Schedule:Day:Interval=\"SCHEDULE DAY 156\", Blank Schedule Type Limits Name input -- will not be validated.\n   ** Warning ** ProcessScheduleInput: Schedule:Day:Interval=\"SCHEDULE DAY 157\", Blank Schedule Type Limits Name input -- will not be validated.\n   ** Warning ** ProcessScheduleInput: Schedule:Day:Interval=\"SCHEDULE DAY 158\", Blank Schedule Type Limits Name input -- will not be validated.\n   ** Warning ** ProcessScheduleInput: Schedule:Day:Interval=\"SCHEDULE DAY 159\", Blank Schedule Type Limits Name input -- will not be validated.\n   ** Warning ** ProcessScheduleInput: Schedule:Day:Interval=\"SCHEDULE DAY 16\", Blank Schedule Type Limits Name input -- will not be validated.\n   ** Warning ** ProcessScheduleInput: Schedule:Day:Interval=\"SCHEDULE DAY 160\", Blank Schedule Type Limits Name input -- will not be validated.\n   ** Warning ** ProcessScheduleInput: Schedule:Day:Interval=\"SCHEDULE DAY 161\", Blank Schedule Type Limits Name input -- will not be validated.\n   ** Warning ** ProcessScheduleInput: Schedule:Day:Interval=\"SCHEDULE DAY 162\", Blank Schedule Type Limits Name input -- will not be validated.\n   ** Warning ** ProcessScheduleInput: Schedule:Day:Interval=\"SCHEDULE DAY 163\", Blank Schedule Type Limits Name input -- will not be validated.\n   ** Warning ** ProcessScheduleInput: Schedule:Day:Interval=\"SCHEDULE DAY 164\", Blank Schedule Type Limits Name input -- will not be validated.\n   ** Warning ** ProcessScheduleInput: Schedule:Day:Interval=\"SCHEDULE DAY 165\", Blank Schedule Type Limits Name input -- will not be validated.\n   ** Warning ** ProcessScheduleInput: Schedule:Day:Interval=\"SCHEDULE DAY 166\", Blank Schedule Type Limits Name input -- will not be validated.\n   ** Warning ** ProcessScheduleInput: Schedule:Day:Interval=\"SCHEDULE DAY 167\", Blank Schedule Type Limits Name input -- will not be validated.\n   ** Warning ** ProcessScheduleInput: Schedule:Day:Interval=\"SCHEDULE DAY 168\", Blank Schedule Type Limits Name input -- will not be validated.\n   ** Warning ** ProcessScheduleInput: Schedule:Day:Interval=\"SCHEDULE DAY 169\", Blank Schedule Type Limits Name input -- will not be validated.\n   ** Warning ** ProcessScheduleInput: Schedule:Day:Interval=\"SCHEDULE DAY 17\", Blank Schedule Type Limits Name input -- will not be validated.\n   ** Warning ** ProcessScheduleInput: Schedule:Day:Interval=\"SCHEDULE DAY 170\", Blank Schedule Type Limits Name input -- will not be validated.\n   ** Warning ** ProcessScheduleInput: Schedule:Day:Interval=\"SCHEDULE DAY 171\", Blank Schedule Type Limits Name input -- will not be validated.\n   ** Warning ** ProcessScheduleInput: Schedule:Day:Interval=\"SCHEDULE DAY 172\", Blank Schedule Type Limits Name input -- will not be validated.\n   ** Warning ** ProcessScheduleInput: Schedule:Day:Interval=\"SCHEDULE DAY 173\", Blank Schedule Type Limits Name input -- will not be validated.\n   ** Warning ** ProcessScheduleInput: Schedule:Day:Interval=\"SCHEDULE DAY 174\", Blank Schedule Type Limits Name input -- will not be validated.\n   ** Warning
[...]
2HY7ZKUpCQlKUlJSlKSkpSkJCUpSUlK0tpIlyiDOPrUXCt23UqH6ci+uoymtpXa67T56MfJLE7WY9zcP/LZ8MqOk+FkPLJJrrBG4vHj4OlgEERBrhR8GqaXQTK5ssGgs+bI5ONFK5pO7XjQbLjYjZ01ByxHK0rTuNm4buwGvXbJg26yg8LiByXpzcjO8fai8dnlJM6Ob4zseQnahcb5ZJzufbLDi8vUaZxORoPiGvN782q693w0mcRBJ/jt8iYZnkWj4PWljaOp+/2IVzfJXid4Por3wuDV2eXecfDjb6Ozq3Qvmcyym/J/vwa/nhx/796W2isn8er/ghdnZ+69j3Z8t/m7x8lZPJymfxff893jwfDjl6fFY2SxTCsYDo4aZ64GjrPLFg3HNn4X9tuNIL+YR43BMJmOopsnw/Eom9s7HU3OPnzbkAEz1fk5BOnNNDveXc/H76OP0fxV75FufIxil6/BUTAYXk1HtjW2n159vGg2/voFyN1gv93O/2dtATrdQZRGmfCbPxqj6NSOGk8aA3sezUZpMI0n58ORbezOZ95dN56YVnu38TEazezi32duncqOyZae4+OTk8bn3UI6IUinA9LZB+l0QTo9kE4fpHMA0jkE6Zg2SgiV0QaV0gaV0waV1AaV1QaV1gaV1waV2AaV2SEqs0PYWo3K7BCV2WGpzA6S2dXVyg9XF+posR2UkBGvUTkZ8QqVkxGvTzkZse7LyYhVX05GrPlyMmLFl5MR672cjNzISuqA8lhuYyV1QJksN7GSOqBclltYSR1QNssNrKQOKJ/l9lVSB7Uug/JZ7l0ldYrn86fhOC3ftk7dS8V1xMtTUke8PCV1xMtTUkcs95I6YrmX1BHLvaSOWO4ldcRyL6kj96+yQqiMljtYWSFUTss9rKwQKqvlLlZWCJXXch8rK4TKbLmTlRWCrdWozJabWVmh4pl9+0nG2l8altpce+U/9OY/RQwIEW4+RGfzIfY3H6K7+RC9zYfobz7EweZDHG4+xEpn31SMGurb1FDgpoYKNzWUuKmhxk0NRW5qqHJTQ5mbGuo8rKHOwzr6eA11HtZQ52G1Ol/7g47FtlXzX3wEhJDvBiyEfDNgIeR7AQshL7mwEPKKCwshL7iwEPJ6CwshL7ewEJ5PrnEx5I/+cDHkTwVxMeQPDHExaihxz7YKF6OGIvdsq3Axaihzz7YK1//kbRUuRh19vIZG7tlW4WJUq/O1v5tVbFs1/2EtQAj5bsBCyDcDFkK+F7AQ8pILCyGvuLAQ8oILCyGvt7AQ8nejYCE82ypcDHlbhYshb6twMeRtFS6G/BUtXAz5e4m4GPJXFnEx5G8z4mLIX3TExaihzj3bKlyMOvp4DY3cs63CxajWytf+PEmxbdX890sAIeS7AQsh3wxYCPlewELI2ypYCHlbBQshb6tgIeRtFSyEvNzCQni2VbgY8rYKF0PeVuFiyNsqXAx5W4WLIW+rcDHkbRUuhrytwsWQt1W4GDXUuWdbhYtRRx+voZF7tlW4GNVa+VoX+GLbqrlNPCCEfDdgIeSbAQsh3wtYCHlbBQshb6tgIeRtFSyEvK2ChZCXW1gIz7YKF0PeVuFiyNsqXAx5W4WLIW+rcDHkbRUuhrytwsWQt1W4GPK2Chejhjr3bKtwMero4zU0cs+2ChejWitfa7ZbbFs1d+MFhJDvBiyEfDNgIeR7AQshb6tgIeRtFSyEvK2ChZC3VbAQ8nILC+HZVuFiyNsqXAx5W4WLIW+rcDHkbRUuhrytwsWQt1W4GPK2ChdD3lbhYtRQ555tFS5GHX28hkbu2VbhYlRr5Ws9DYttq+amh4AQ8t2AhZBvBiyEfC9gIeRtFSyEvK2ChZC3VbAQ8rYKFsLnOwUK4TVbQ8XwuVWhYviMrFAxfB5XqBg++ytUDJ/nGyqGzw4OFcPnFIeK4TORQ8Wooc492ypcjDr6eA2N3LOtwsVY38rfFnF4Xdg5B0fB2H5aOsjmxrHN5OPFbu4Au9YqdukJndj0+8lsPEia3fZuYEx3N+i4f4XdYnaz1xnGrdX1YHAcpfZiEt88vR4mc0/l2/MvYDydCbyIBzZ+OXMWx4UPdBw3qxy/2CiZxXaO4VyaF9d9w6bfnOY0pznNaU5zmtOc5jSnOc1pTnOa05zmNKc5zWlOc5rTnOY0pznNaU5zmtOc5jSnOc1pTnOa05zmNKc5zWlOc5rTnOY0pznNaU5zmtOc/p+avmlNPto4Hg7sL5F7sNa02srnVd2jscnqo7GvbDy0yeLx2sbu8gHi6WiStkbDsV37iGzyped01z9Zm7Tyn56fTkZROpyMM6hGktrp3qk9n8S2UezJ55/thR0PVk9o/lqz194NOu7J5bZ7kNn9T2Nkz1MHtkZ6Kdt6d2HTk3Hqrk8W4nw2PstJmzvBH2skloT29ug3a5/ldmN4HjTTy2HSSvK7UiyQG3cOamXX7yQ6u2z+B7is2hLfPTqesS90300nydAJPsteLnI2y+FkvkAVTz6VQ1piDccD6+phz+yWPHo53lc98HxoRy7fmotrOq+Ti3gym9pB8M03wV8Wr1+33l1GyeL5d1dgO3dnb744m12QVnRx8dzFaI3s+CK9DL4LwuAfQePpaNQInqy+IxkNz2xzz+y8ab/dWVtv985kEgfN99mptL8N3mdhFqm6iOte+1u24pS/QW64NF7ovXn/tvXB3gRHR0fzi1dNMVdd3Pb3ZU91OU5jG32ocvDnkseUfb+7XouzO3Jp7ZJhkSm5kUPrXZQkw4uxHRw7i4jkTX4l31a7lMsbPZ0ll82q9yK7pU/m97N6JY1GT4qcZcu9s2qUJI0nH2yxOPP3Vo00mUZnw/SmWKjFmyufVR5iGaqqynIhWV1WqpRH6cXHjWU5ry48wV5gyqqVKbfirJ93865a6P2f1+0p3Hj8OPjt99fBv1/8/jJ49eLl659+/SH4+cUPPx0HP568PCkm8Dxbte115LZoQToJkkmcBuPZVZYHZ0FuaZIEUXKWbV6G44sCistr73TudOZoNzgtvrjENp3F42AaxYl9PppEaTNyS/5OdivvvHaav1boYq7fot0JuziFdcKfN+v0crv/zMs9L/bmo4E9j2ajNJjGk2wNs492g0d/PTg4Pj45ebRh4xniEIc4xCEOcYhDHOIQhzjE+d/ECZLZVfafwMHAuheDQXTjiGI7IA1pSEMa0pCGNKQhDWlIQxrS+Gk+5V/N+hPN6WhmiUMc4hCHOMQhDnGIQxziEIc4VXBufzfQuN8NfDWTfjewY/JP2J4+3d8/PCQpSUlKUpKSlKQkJSlJSUpSkpKUpNtBGuakUSqRtnPSTicMD3okJSlJSUpSkpKUpCQlKUlJSlKSknQ7SDuO9Hk8FEjDw5zUmH6/0yEpSUlKUpKSlKQkJSlJSUpSkpKUpNtBuu9IX1/OJNKDnPQwG93vSUpSkpKUpCQlKUlJSlKSkpSkJCXpdpB2Hem/7EAi7eekz54dH/f7JCUpSUlKUpKSlKQkJSlJSUpSkpJ0O0h7+V8mZlYi7eWkx8e9HklJSlKSkpSkJCUpSUlKUpKSlKQk3RbSviP9ZSI5C4bdnPTgIAy7XZKSlKQkJSlJSUpSkpKUpCQlKUlJWhvpEmUQR5+aa8WuW+kwHdlXl9HUtlJ7nTYf/TiZxcl6jJv7Rz4bXtlxMpyMRzbJFdZIPH4cPB0MgijIlYJPw/QySCZXNhh01hyZfLxoRdOpHQ+aDRe7sbPmgOVoRWkaNxvXjd2g1y550E12UFj8oCS9Gdk53l40PrucxNnxjZE9L0G70DifjNO9T3Z4cZk6jdPJaFBcY35vXk33no8mkzjoBL+PB/ajHU2mdhCY4NVNsrcfPB/Fe2Hw6uxy7yT48bfR2VW6l0xm2f34v1+DX0+Ov3dvS+1VsB/89ur/ghdnZ+69j3Z8d/i7x8lZPJymfxff893jwfDjl6fFY2SxTCsYDo4aZy79j7MrFg3HNn4X9k0jyK/jUWMwTKaj6ObJcDzK5vZOR5OzD982ZMBMdX4OQXozzY53l/Lx++hjNH/Ve6QbH6PYpWpwFAyGV9ORbY3tp1cfL5qNv34BcjfYb7fz/1lbe053EKVRJvzmj8YoOrWjxpPGwJ5Hs1EaTOPJ+XBkG7vzmXfXjSem1d5tfIxGM9t40u22Ood3Rqe72zhzK1YmkS1Cx8cnJ43Pu4Vkw83IdjYju78Z2e5mZHubke1vRvZgM7KHm5E17Q3pbqjOzIYKzWyo0syGSs1sqNbMhorNbKjazIbKzWyo3sIN1Vu4qb62oXoLN1RvoabegmR2dbXy2+BVdg6xHZRQLXp9y6kWvbrlVIte23KqRVeycqpF17FyqkVXsXKqRdewcqpFV7ByqoU3DCVlN1NdhbcLJWU3U1+FNwslZTdTYYW3CiVlN1NjhTcKJWU3U2WFtwklZTfUwzZTZYX3CCVlK1fZp+E4VW8PTt07issWvbQlZYte2pKyRS9tSdmiC1hJ2aILWEnZogtYSdmiC1hJ2aILWEnZwvuEsrobqrPCO4WyuhuqtMJ7hbK6G6q1wruFsrobqrbC+4Wyuhuqt8I7hrK6m+prG6q3wpuGsrrl6u1tkQ8uFh9QBkfB2H5afjCSfx7STD5e7OYfbKz9BGT5KWdi0+8ns/EgaXbbu4Ex3d2g4/4Vdot9inKdYdx+eDsYHEepvZjEN0+vh8n8U8Lba1Hgo9RM4EU8sPHLmfvQrvCBjuNmleMXGyWz2M4x3OeOi3ug/XA4/0BqNdQrGw9tssDNIi1uyHQ0SVvuU7K1IZMvnfd60qSVJ950MorS4WScQTWS1E73Tu35JLaNYpn0s72w48HqCc1fa/ayLOi4THAfqhn3P4vPXtd+LL2Ubb27sOnJOHXXJwtxPhuf5aTNneCPAh++OkJ7e/SbtbXhxvA8aKaXwyTLa3dcsUBu3DmolV2/k+jssvkf4LJqS/zFZ4wL3XfTSTJ0gs+yl4uczXI4mS9QxZNP5ZCWWMPxwLrC3TO7JY9ejvdVDzwf2pHLt+bims7r5CKezNyn6d98E/xl8fp1691llCzWE1dgO3dnb744m12QVnRx8dzFaI3s+CK9DL4LwuAfQePpaNQInqy+IxkNz2xzz+y8ab/dWVtv985kEgfN99mptL8N3mdhFqm6iOte+9tRYMrfIDdcGi/03rx/2/pgs+Xt6Gh+8aop5qqL2/6+7Kkux2lsow9VDv5c8piy73fXa3F2Ry6tXTIsMiVvjK138y8W2UH+1aLkTX4l31a7lMsbPZ0ll82q9yK7pU/m97N6JY1GT4qcZcu9s2qUJI0nH2yxOPP3Vo00mUZnw/SmWKjFmyufVR5iGaqqynIhWV1WqpRH6cXHjWU5ry48wV5gyqqVKbfirJ93865a6P2f1+0p3Hj8OPjt99fBv1/8/jJ49eLl659+/SH4+cUPPx0HP568PCkm8Dxbte115LZoQToJkkm2kR7PrrI8OAvyLWISRMlZtnkZji8KKC6vvdO505mj3eC0+OIS23QWj4NpFCf2+WgSpc3ILfk72a2889pp/lqhi7l+i3Yn7OIU1gl//i98AfRPn9guvuXpPoD9r3wflTjEIQ5xiEMc4hCHOMQhDnG2Huf+N18cUWwHpCENaUhDGtKQhjSkIQ1pSEMaP8297wQ6GvcVP+IQhzjEIQ5xiEMc4hCHOMQhzn/RdvG1vZraOEpnsQ2az3dovPiwjBdn0+noJng6jAN3o7bEMzHcBs/EkJ6Jpa0N6JlYXpaeifRMLG9tQM/Earr0TKRnIj0T6ZlIz0R6Jn5Jlp6J9EykZ2LpbQI9E8vL0jORnon0TCy7TaBnYjVdeibSM5GeifRM/MIHF/RM/AIHPRPpmRjQM7EYFj0T6ZlYZdAz0Q16JtIzMR/0TPS/k56J6wXcoGfidliLEIc4xCEOcYhDHOIQhzjEIc7W4zwwxxHSkIY0pCENaUhDGtKQhjSk2R6ar8bphDjEIQ5xiEMc4hCHOMQhDnGqx6Nn4pcHPRPnnomB2RLXxM42uCZ26JpY2tyAronlZemaSNfE8uYGdE2spkvXRLom0jWRrol0TaRr4pdk6ZpI10S6JpbeJtA1sbwsXRPpmkjXxLLbBLomVtOlayJdE+maSNfEL3xwQdfEL3DQNZGuiQFdE4th0TWRrolVBl0T3aBrIl0T80HXRP876Zq4XsANuiZuh7kIcYhDHOIQhzjEIQ5xiEMc4mw9zgPzHCENaUhDGtKQhjSkIQ1pSEOa7aH5arxOiEMc4hCHOMQhDnGIQxziEKd6PLomfnnQNXHhmhhuiWvi/ja4Ju7X5pqY/7uqPRNIpwPS2QfpdEE6PZBOH6RzANI5BOmsuAqohFAZbVApbVA5bVBJbVBZbVBpbVB5bVCJbVCZHaIyO4St1ajMDlGZHZbK7OJufitS1e37FDLiFapu0KeQEeu+ugWfQkas+eomewoZsd4VNnoaHVAey21M4Yyn0QGlstzDFGZ3Gh1QNssNTOFfp1kHQfksdy+FJZ1GB5TPcuuq7jK3IqOwldPoiJdHYRyn0RHLXWENp9ERy11h/qbREctdY++mEkJltNzBNI5tKiFUUstNTGPCphJC5bXcxzS+aqqVEZXZcivTWKWphFCZLXeze0K/xcNJPExvAhPsBc1Xs/GO86Hq7f2/aLzXNnv5v5/Zs72Okdpce+U/9J4+3d8/PASECDcforP5EPubD9HdfIje5kP0Nx/iYPMhDjcfYqWzbypGDfVtaihwU0OFmxpK3NRQ46aGIjc1VLmpocxNDXUe1lDnYR19vIY6D2uo87BanYd5jCiVYrSLbas6nTA86AFCyHcDFkK+GbAQ8r2AhZCXXFgIecWFhZAXXFgIeb2FhZCXW1gIz7YKF6OG+vZsq3Axaqhwz7YKF6OGGvdsq3Axaqhyz7YKF6OGOvdsq3Ax6ujjNdS5Z1uFi1GtzjsuxvN4KMQID4ttq4zp9zsdQAj5bsBCyDcDFkK+F7AQ8pILCyGvuLAQ8oILCyF/AwoWQv5uFCyE5wuBuBjyN6pwMeQvW+FiyN/DwsWQv6KFiyF/LxEXQ/7KIi6G/G1GXIwaytzzHUhc/6uhzj3fnMTFqKHOPd+3xMWo1sr3XYzXlzMpxkGxbZX7zaXu94AQ8rYKFkLeVsFCyPcCFkLeVsFCyNsqWAh5WwULIa+3sBDycgsL4dlW4WLIyy0uhrzc4mLIyy0uhrytwsWQt1W4GPK2ChdD3lbhYtRQ5p5tFa7/1VDnnm0VLkYNde7ZVuFiVGvlXRfjX3YgxegX21Y9e3Z83O8DQsjbKlgIeVsFCyHfC1gIeVsFCyFvq2Ah5G0VLIS83sJCyMstLIRnW4WLIS+3uBjycouLIS+3uBjytgoXQ95W4WLI2ypcDHlbhYtRQ5l7tlW4/ldDnXu2VbgYNdS5Z1uFi1GtlffyrdvMSjF6xbZVx8e9HiSEvK2ChZC3VbAQ8r2AhZC3VbAQ8rYKFkLeVsFCyOstLIS83MJCeLZVuBjycouLIS+3uBjycouLIW+rcDHkbRUuhrytwsWQt1W4GDWUuWdbhet/NdS5Z1uFi1FDnXu2VbgY1Vp538X4ZSJ9LT7sFttWHRyEYbcLCCFvq2Ah5G0VLIR8L2Ah5G0VLIS8rYKFkLdVsBA+dylQCJ/vFCiE12wNFUNebnExfEZWqBg+jytUDJ/9FSqGz/MNFcNnB4eK4XOKQ8Woocy9/nKo/ldDnXtd6VAxaqhzr5cdKsb6Vv62iMPrwog5OArG9tPSQTY3jm0mHy92cwfYtVaxSzfnxKbfT2bjQdLstncDY7q7Qcf9K+wWs5u9zjBunagHg+MotReT+Obp9TCZeyHfnn8By+hM4EU8sPHLmbMmLnyg47hZ5fjFRskstnMM5668uO4b9uTmNKc5zWlOc5rTnOY0pznNaU5zmtOc5jSnOc1pTnOa05zmNKc5zWlOc5rTnOY0pznNaU5zmtOc5jSnOc1pTnOa05zmNKc5zWlOc5rTnOb0/9T0TWvy0cbxcGB/idyDtabVVj6v6h6NTVYfjX1l46FNFo/XNnaXDxBPR5O0NRqO7dpHZJMvPae7/snapJX/9Px0MorS4WScQTWS1E73Tu35JLaNYk8+/2wv7HiwekLz15q99m7QcU8ut92DzO5/GiN7njqwNdJL2da7C5uejFN3fbIQ57PxWU7a3An+WCOxJLS3R79Z+yy3G8PzoJleDpNWkt+VYoHcuHNQK7t+J9HZZfM/wGXVlvju0fGMfaH7bjpJhk7wWfZykbNZDifzBap48qkc0hJrOB5YVw97Zrfk0cvxvuqB50M7cvnWXFzTeZ1cxJPZ1A6Cb74J/rJ4/br17jJKFs+/uwLbuTt788XZ7IK0oouL5y5Ga2THF+ll8F0QBv8IGk9Ho0bwZPUdyWh4Zpt7ZudN++3O2nq7dyaTOGi+z06l/W3wPguzSNVFXPfa37IVp/wNcsOl8ULvzfu3rQ/2Jjg6OppfvGqKueritr8ve6rLcRrb6EOVgz+XPKbs+931WpzdkUtrlwyLTMmNHFrvoiQZXozt4NhZRCRv8iv5ttqlXN7o6Sy5bFa9F9ktfTK/n9UraTR6UuQsW+6dVaMkaTz5YIvFmb+3aqTJNDobpjfFQi3eXPms8hDLUFVVlgvJ6rJSpTxKLz5uLMt5deEJ9gJTVq1MuRVn/bybd9VC7/+8bk/hxuPHwW+/vw7+/eL3l8GrFy9f//TrD8HPL3746Tj48eTlSTGB59mqba8jt0UL0kmQTOI0GM+usjw4C3JLkySIkrNs8zIcXxRQXF57p3OnM0e7wWnxxSW26SweB9MoTuzz0SRKm5Fb8neyW3nntdP8tUIXc/0W7U7YxSmsE/68WaeX2/1nXu55sTcfDex5NBulwTSeZGuYfbQbPPrrwcHx8cnJow0bzxCHOMQhDnGIQxziEIc4xCHO/yZOkMyusv8EDgbWvRgMohtHFNsBaUhDGtKQhjSkIQ1pSEMa0pDGT/Mp/2rWn2hORzNLHOIQhzjEIQ5xiEMc4hCHOMSpgnP7u4HG/W7gq5n0u4Edk3/C9vTp/v7hIUlJSlKSkpSkJCUpSUlKUpKSlKQk3Q7SMCeNUom0nZN2OmF40CMpSUlKUpKSlKQkJSlJSUpSkpKUpNtB2nGkz+OhQBoe5qTG9PudDklJSlKSkpSkJCUpSUlKUpKSlKQk3Q7SfUf6+nImkR7kpIfZ6H5PUpKSlKQkJSlJSUpSkpKUpCQlKUm3g7TrSP9lBxJpPyd99uz4uN8nKUlJSlKSkpSkJCUpSUlKUpKSlKTbQdrL/zIxsxJpLyc9Pu71SEpSkpKUpCQlKUlJSlKSkpSkJCXptpD2HekvE8lZMOzmpAcHYdjtkpSkJCUpSUlKUpKSlKQkJSlJSUrS2kiXKIM4+tRcK3bdSofpyL66jKa2ldrrtPnox8ksTtZj3Nw/8tnwyo6T4WQ8skmusEbi8ePg6WAQREGuFHwappdBMrmywaCz5sjk40Urmk7teNBsuNiNnTUHLEcrStO42bhu7Aa9dsmDbrKDwuIHJenNyM7x9qLx2eUkzo5vjOx5CdqFxvlknO59ssOLy9RpnE5Gg+Ia83vzz6f/nF/gl/bSRmlgghdnZ8Grs8tHO77b9N3j5CweTtO/i+/57vFg+PHL0+IxslimFQwHR40zl8PH2WlHw7GN34X9biPIL8ZRYzBMpqPo5slwPMrm9k5Hk7MP3zZkwEx1fg5BejPNjnfX4/H76GM0f9V7pBsfo9jlW3AUDIZX05Ftje2nVx8vmo2/fgFyN9hvt/P/WVtATncQpVEm/OaPxig6taPGk8bAnkezURpM48n5cGQbu/OZd9eNJ6bV3m18jEYzu/j3mVtnsmOypeP4+OSk8Xm3kE4I0umAdPZBOl2QTg+k0wfpHIB0DkE6po0SQmW0QaW0QeW0QSW1QWW1QaW1QeW1QSW2QWV2iMrsELZWozI7RGV2WCqzg2R2dbXyw9OFOlpsByVkxGtUTka8QuVkxOtTTkas+3IyYtWXkxFrvpyMWPHlZMR6LycjN7KSOqA8lttYSR1QJstNrKQOKJflFlZSB5TNcgMrqQPKZ7l9ldRBrcugfJZ7V0md4vn8aThOy7etU/dScR3x8pTUES9PSR3x8pTUEcu9pI5Y7iV1xHIvqSOWe0kdsdxL6sj9q6wQKqPlDlZWCJXTcg8rK4TKarmLlRVC5bXcx8oKoTJb7mRlhWBrNSqz5WZWVqh4Zt9+ErH2l4KlNtde+Q+9+U8JA0KEmw/R2XyI/c2H6G4+RG/zIfqbD3Gw+RCHmw+x0tk3FaOG+jY1FLipocJNDSVuaqhxU0ORmxqq3NRQ5qaGOg9rqPOwjj5eQ52HNdR5WK3O1/4gY7Ft1fwXGwEh5LsBCyHfDFgI+V7AQshLLiyEvOLCQsgLLiyEvN7CQsjLLSyEZ1uFi1FDfXu2VbgYNVS4Z1uFi1FDjXu2VbgYNVS5Z1uFi1FDnXu2VbgYdfTxGurcs63CxahW52t/96rYtmr+w1iAEPLdgIWQbwYshHwvYCHkJRcWQl5xYSHkBRcWQv4GFCyE/N0oWAjPFwJxMeRvVOFiyF+2wsWQv4eFiyF/RQsXQ/5eIi6G/JVFXAz524y4GDWUuec7kLj+V0Ode745iYtRQ517vm+Ji1Gtla/9eZFi26r5748AQsjbKlgIeVsFCyHfC1gIeVsFCyFvq2Ah5G0VLIS83sJCyMstLIRnW4WLIS+3uBjycouLIS+3uBjytgoXQ95W4WLI2ypcDHlbhYtRQ5l7tlW4/ldDnXu2VbgYNdS5Z1uFi1Gtla91cS+2rZrbvANCyNsqWAh5WwULId8LWAh5WwULIW+rYCHkbRUshLzewkLIyy0shGdbhYshL7e4GPJyi4shL7e4GPK2ChdD3lbhYsjbKlwMeVuFi1FDmXu2Vbj+V0Ode7ZVuBg11LlnW4WLUa2VrzXLLbatmrvpAkLI2ypYCHlbBQsh3wtYCHlbBQshb6tgIeRtFSyEvN7CQsjLLSyEZ1uFiyEvt7gY8nKLiyEvt7gY8rYKF0PeVuFiyNsqXAx5W4WLUUOZe7ZVuP5XQ517tlW4GDXUuWdbhYtRrZWv9SQstq2amxYCQsjbKlgIeVsFCyHfC1gIeVsFCyFvq2Ah5G0VLITPXQoUwuc7BQrhNVtDxZCXW1wMn5EVKobP4woVw2d/hYrh83xDxfDZwaFi+JziUDFqKHOvvxyq/9VQ515XOlSMGurc62WHirG+lb8t4vC6sGMOjoKx/bR0kM2NY5vJx4vd3AF2rVXs0tM5sen3k9l4kDS77d3AmO5u0HH/CrvF7GavM4xbq+rB4DhK7cUkvnl6PUzmnsi351/AODoTeBEPbPxy5iyKCx/oOG5WOX6xUTKL7RzDuSwvrvuGTbs5zWlOc5rTnOY0pznNaU5zmtOc5jSnOc1pTnOa05zmNKc5zWlOc5rTnOY0pznNaU5zmtOc5jSnOc1pTnOa05zmNKc5zWlOc5rTnOY0pzn9PzV905p8tHE8HNhfIvdgrWm1lc+rukdjk9VHY1/ZeGiTxeO1jd3lA8TT0SRtjYZju/YR2eRLz+muf7I2aeU/PT+djKJ0OBlnUI0ktdO9U3s+iW2j2JPPP9sLOx6sntD8tWavvRt03JPLbfcgs/ufxsiepw5sjfRStvXuwqYn49RdnyzE+Wx8lpM2d4I/1kgsCe3t0W/WPsvtxvA8aKaXw6SV5HelWCA37hzUyq7fSXR22fwPcFm1Jb57dDxjX+i+m06SoRN8lr1c5GyWw8l8gSqefCqHtMQajgfW1cOe2S159HK8r3rg+dCOXL41F9d0XicX8WQ2tYPgm2+Cvyxev269u4ySxfPvrsB27s7efHE2uyCt6OLiuYvRGtnxRXoZfBeEwT+CxtPRqBE8WX1HMhqe2eae2XnTfruztt7unckkDprvs1Npfxu8z8IsUnUR1732t2zFKX+D3HBpvNB78/5t64O9CY6OjuYXr5pirrq47e/LnupynMY2+lDl4M8ljyn7fne9Fmd35NLaJcMiU3Ijh9a7KEmGF2M7OHYWEcmb/Eq+rXYplzd6Oksum1XvRXZLn8zvZ/VKGo2eFDnLlntn1ShJGk8+2GJx5u+tGmkyjc6G6U2xUIs3Vz6rPMQyVFWV5UKyuqxUKY/Si48by3JeXXiCvcCUVStTbsVZP+/mXbXQ+z+v21O48fhx8Nvvr4N/v/j9ZfDqxcvXP/36Q/Dzix9+Og5+PHl5UkzgebZq2+vIbdGCdBIkkzgNxrOrLA/OgtzSJAmi5CzbvAzHFwUUl9fe6dzpzNFucFp8cYltOovHwTSKE/t8NInSZuSW/J3sVt557TR/rdDFXL9FuxN2cQrrhD9v1unldv+Zl3te7M1HA3sezUZpMI0n2RpmH+0Gj/56cHB8fHLyaMPGM8QhDnGIQxziEIc4xCEOcYjzv4kTJLOr7D+Bg4F1LwaD6MYRxXZAGtKQhjSkIQ1pSEMa0pCGNKTx03zKv5r1J5rT0cwShzjEIQ5xiEMc4hCHOMQhDnGq4Nz+bqBxvxv4aib9bmDH5J+wPX26v394SFKSkpSkJCUpSUlKUpKSlKQkJSlJt4M0zEmjVCJt56SdThge9EhKUpKSlKQkJSlJSUpSkpKUpCQl6XaQdhzp83gokIaHOakx/X6nQ1KSkpSkJCUpSUlKUpKSlKQkJSlJt4N035G+vpxJpAc56WE2ut+TlKQkJSlJSUpSkpKUpCQlKUlJStLtIO060n/ZgUTaz0mfPTs+7vdJSlKSkpSkJCUpSUlKUpKSlKQkJel2kPbyv0zMrETay0mPj3s9kpKUpCQlKUlJSlKSkpSkJCUpSUm6LaR9R/rLRHIWDLs56cFBGHa7JCUpSUlKUpKSlKQkJSlJSUpSkpK0NtIlyiCOPjXXil230mE6sq8uo6ltpfY6bT76cTKLk/UYN/ePfDa8suNkOBmPbJIrrJF4/Dh4OhgEUZArBZ+G6WWQTK5sMOisOTL5eNGKplM7HjQbLnZjZ80By9GK0jRuNq4bu0GvXfKgm+ygsPhBSXozsnO8vWh8djmJs+MbI3tegnahcT4Zp3uf7PDiMnUap5PRoLjG/N788+k/5xf4pb20URqEwYuzs+DV2eWjHd9t+u5xchYPp+nfxfd893gw/PjlafEYWSzTCoaDo8aZy+Hj7LSj4djG78J+rxHkF+OoMRgm01F082Q4HmVze6ejydmHbxsyYKY6P4cgvZlmx7vr8fh99DGav+o90o2PUezyLTgKBsOr6ci2xvbTq48XzcZfvwC5G+y32/n/rC0gpzuI0igTfvNHYxSd2lHjSWNgz6PZKA2m8eR8OLKN3fnMu+vGE9Nq7zY+RqOZXfz7zK0z2THZ0nF8fHLS+LxbSCcE6XRAOvsgnS5IpwfS6YN0DkA6hyAd00YJoTLaoFLaoHLaoJLaoLLaoNLaoPLaoBLboDI7RGV2CFurUZkdojI7LJXZQTK7ulr54elCHS22gxIy4jUqJyNeoXIy4vUpJyPWfTkZserLyYg1X05GrPhyMmK9l5ORG1lJHVAey22spA4ok+UmVlIHlMtyCyupA8pmuYGV1AHls9y+Suqg1mVQPsu9q6RO8Xz+NByn5dvWqXupuI54eUrqiJenpI54eUrqiOVeUkcs95I6YrmX1BHLvaSOWO4ldeT+VVYIldFyBysrhMppuYeVFUJltdzFygqh8lruY2WFUJktd7KyQrC1GpXZcjMrK1Q8s28/iVj7S8HF/t44/ylhQAj5v25hIeT/7oWFkP+LGBZC/isQLIT89yFYCPkvR7AQ8t+UYCHkvzbBQnj+xIqLUUN9e/4wi4tRQ4V7/pyLi1FDjXv+CIyLUUOVe/50jItRQ517/uCMi1FHH6+hzj1/wcbFqFbna3+Qsdi2av6LjYAQ8t2AhZBvBiyEfC9gIeQlFxZCXnFhIeQFFxZCXm9hIeTlFhbCs63Cxaihvj3bKlyMGircs63Cxaihxj3bKlyMGqrcs63Cxaihzj3bKlyMOvp4DXXu2VbhYlSr87W/e1VsWzX/YSxACPluwELINwMWQr4XsBDykgsLIa+4sBDyggsLIa+3sBDycgsL4dlW4WLUUN+ebRUuRg0V7tlW4WLUUOOebRUuRg1V7tlW4WLUUOeebRUuRh19vIY692yrcDGq1fnanxcptq2a//4IIIR8N2Ah5JsBCyHfC1gIecmFhZBXXFgIecGFhZDXW1gIebmFhfBsq3Axaqhvz7YKF6OGCvdsq3Axaqhxz7YKF6OGKvdsq3Axaqhzz7YKF6OOPl5DnXu2VbgY1ep8rYt7sW3V3OYdEEK+G7AQ8s2AhZDvBSyEvOTCQsgrLiyEvODCQsjrLSyEvNzCQni2VbgYNdS3Z1uFi1FDhXu2VbgYNdS4Z1uFi1FDlXu2VbgYNdS5Z1uFi1FHH6+hzj3bKlyManW+1iy32LZq7qYLCCHfDVgI+WbAQsj3AhZCXnJhIeQVFxZCXnBhIeT1FhZCXm5hITzbKlyMGurbs63Cxaihwj3bKlyMGmrcs63Cxaihyj3bKlyMGurcs63Cxaijj9dQ555tFS5GtTpf60lYbFs1Ny0EhPD53IBC+BxwQCF83jigED4/KFAIn1MUKITPQwoUwucuBQrh850ChfCaraFi1FDfXos2VIwaKtxr7IaKUUONe+3gUDFqqHKviRwqRg117rWeQ8Woo4/XUOdeLztUjPV1/raIw+vCjjk4Csb209JBNjeObSYfL3ZzB9i1VrFLT+fEpt9PZuNB0uy2dwNjurtBx/0r7Bazm73OMG6tqgeD4yi1F5P45un1MJl7It+efwHj6EzgRTyw8cuZsygufKDjuFnl+MVGySy2cwznsry47hs27eY0pznNaU5zmtOc5jSnOc1pTnOa05zmNKc5zWlOc5rTnOY0pznNaU5zmtOc5jSnOc1pTnOa05zmNKc5zWlOc5rTnOY0pznNaU5zmtOc5vT/1PRNa/LRxvFwYH+J3IO1ptVWPq/qHo1NVh+NfWXjoU0Wj9c2dpcPEE9Hk7Q1Go7t2kdkky89p7v+ydqklf/0/HQyitLhZJxBNZLUTvdO7fkkto1iTz7/bC/seLB6QvPXmr32btBxTy633YPM7n8aI3ueOrA10kvZ1rsLm56MU3d9shDns/FZTtrcCf5YI7EktLdHv1n7LLcbw/OgmV4Ok1aS35Vigdy4c1Aru34n0dll8z/AZdWW+O7R8Yx9oftuOkmGTvBZ9nKRs1kOJ/MFqnjyqRzSEms4HlhXD3tmt+TRy/G+6oHnQzty+dZcXNN5nVzEk9nUDoJvvgn+snj9uvXuMkoWz7+7Atu5O3vzxdnsgrSii4vnLkZrZMcX6WXwXRAG/wgaT0ejRvBk9R3JaHhmm3tm50377c7aert3JpM4aL7PTqX9bfA+C7NI1UVc99rfshWn/A1yw6XxQu/N+7etD/YmODo6ml+8aoq56uK2vy97qstxGtvoQ5WDP5c8puz73fVanN2RS2uXDItMyY0cWu+iJBlejO3g2FlEJG/yK/m22qVc3ujpLLlsVr0X2S19Mr+f1StpNHpS5Cxb7p1VoyRpPPlgi8WZv7dqpMk0OhumN8VCLd5c+azyEMtQVVWWC8nqslKlPEovPm4sy3l14Qn2AlNWrUy5FWf9vJt31ULv/7xuT+HG48fBb7+/Dv794veXwasXL1//9OsPwc8vfvjpOPjx5OVJMYHn2aptryO3RQvSSZBM4jQYz66yPDgLckuTJIiSs2zzMhxfFFBcXnunc6czR7vBafHFJbbpLB4H0yhO7PPRJEqbkVvyd7Jbeee10/y1Qhdz/RbtTtjFKawT/rxZp5fb/Wde7nmxNx8N7Hk0G6XBNJ5ka5h9tBs8+uvBwfHxycmjDRvPEIc4xCEOcYhDHOIQhzjEIc7/Jk6QzK6y/wQOBta9GAyiG0cU2wFpSEMa0pCGNKQhDWlIQxrSkMZP8yn/atafaE5HM0sc4hCHOMQhDnGIQxziEIc4xKmCc/u7gcb9buCrmfS7gR2Tf8L29On+/uEhSUlKUpKSlKQkJSlJSUpSkpKUpCTdDtIwJ41SibSdk3Y6YXjQIylJSUpSkpKUpCQlKUlJSlKSkpSk20HacaTP46FAGh7mpMb0+50OSUlKUpKSlKQkJSlJSUpSkpKUpCTdDtJ9R/r6ciaRHuSkh9nofk9SkpKUpCQlKUlJSlKSkpSkJCUpSbeDtOtI/2UHEmk/J3327Pi43ycpSUlKUpKSlKQkJSlJSUpSkpKUpNtB2sv/MjGzEmkvJz0+7vVISlKSkpSkJCUpSUlKUpKSlKQkJem2kPYd6S8TyVkw7OakBwdh2O2SlKQkJSlJSUpSkpKUpCQlKUlJStLaSJcogzj61Fwrdt1Kh+nIvrqMpraV2uu0+ejHySxO1mPc3D/y2fDKjpPhZDyySa6wRuLx4+DpYBBEQa4UfBqml0EyubLBoLPmyOTjRSuaTu140Gy42I2dNQcsRytK07jZuG7sBr12yYNusoPC4gcl6c3IzvH2ovHZ5STOjm+M7HkJ2oXG+WSc7n2yw4vL1GmcTkaD4hrze/PPp/+cX+CX9tJGafDi7Cx4dXb5aMd3k757nJzFw2n6d/E93z0eDD9+eVo8RhbLtILh4Khx5jL4ODvpaDi28buw328E+aU4agyGyXQU3TwZjkfZ3N7paHL24duGDJipzs8hSG+m2fHuajx+H32M5q96j3TjYxS7bAuOgsHwajqyrbH99OrjRbPx1y9A7gb77Xb+P2vLx+kOojTKhN/80RhFp3bUeNIY2PNoNkqDaTw5H45sY3c+8+668cS02ruNj9FoZhtPeoetwzvj4HC3cebWnEwhW0aOj09OGp93C6mGG1HtbER1fyOq3Y2o9jai2t+I6sFGVA83omram5HdTHWZzZSX2Ux9mc0UmNlMhZnNlJjZTI2ZzRSZ2UyVhZupsnBDPWwzVRZupspCRZUFyezqauVnvCvsEGI7KCFa8NqWEy14ZcuJFryu5UQLrl3lRAuuXOVEC65b5UQLrlrlRAuuWeVEi24MSqpupKaKbgtKqm6kqopuCkqqbqSuim4JSqpupLKKbghKqm6ktopuB0qqbqZfbaS2iu4FSqpWra1Pw3Gq3QacujcUVy14WUuqFrysJVULXtaSqgWXrJKqBZeskqoFl6ySqgWXrJKqBZeskqpF9wNlZTdTXUV3BGVlN1NfRfcEZWU3U2FFdwVlZTdTY0X3BWVlN1NlRXcGZWU31MM2U2VFNwdlZUtV2dsiHzgsPhsMjoKx/bT8QCP/HKOZfLzYzT+QWPvJxfIDxsSm309m40HS7LZ3A2O6u0HH/SvsFvv04zrDuP3cdDA4jlJ7MYlvnl4Pk/kHdLeXosCnmJnAi3hg45cz93lZ4QMdx80qxy82SmaxnWO4j/wWt0D7uWz+QdJqqFc2HtpkgZtFWtyQ6WiSttynW2tDJl867/WkSSvPu+lkFKXDyTiDaiSpne6d2vNJbBvFMulne2HHg9UTmr/W7GVZ0HGZ4D4MM+5/Fh97rv1EeCnbendh05Nx6q5PFuJ8Nj7LSZs7wR8FPvd0hPb26Ddra8ON4XnQTC+HSZbX7rhigdy4c1Aru34n0dll8z/AZdWW+IvPBhe676aTZOgEn2UvFzmb5XAyX6CKJ5/KIS2xhuOBdYW7Z3ZLHr0c76seeD60I5dvzcU1ndfJRTyZTe0g+Oab4C+L169b7y6jZLGeuALbuTt788XZ7IK0oouL5y5Ga2THF+ll8F0QBv8IGk9Ho0bwZPUdyWh4Zpt7ZudN++3O2nq7dyaTOGi+z06l/W3wPguzSNVFXPfa344CU/4GueHSeKH35v3b1gebLW9HR/OLV00xV13c9vdlT3U5TmMbfahy8OeSx5R9v7tei7M7cmntkmGRKXljbL2bf6fHDvJv9SRv8iv5ttqlXN7o6Sy5bFa9F9ktfTK/n9UraTR6UuQsW+6dVaMkaTz5YIvFmb+3aqTJNDobpjfFQi3eXPms8hDLUFVVlgvJ6rJSpTxKLz5uLMt5deEJ9gJTVq1MuRVn/bybd9VC7/+8bk/hxuPHwW+/vw7+/eL3l8GrFy9f//TrD8HPL3746Tj48eTlSTGB59mqba8jt0UL0kmQTLKN9Hh2leXBWZBvEZMgSs6yzctwfFFAcXntnc6dzhztBqfFF5fYprN4HEyjOLHPR5MobUZuyd/JbuWd107z1wpdzPVbtDthF6ewTvjzf+G7l3/6AHbxBUv3gep/5augxCEOcYhDHOIQhzjEIQ5xiLP1OPe/4OKIYjsgDWlIQxrSkIY0pCENaUhDGtL4ae59JdDRuK/4EYc4xCEOcYhDHOIQhzjEIQ5x/ouOh6/t1dTGUTqLbdB8vkPPwwflefivyGXcjzb/v6dXp0M7TgN3y5zzoR3Msuu/F/Tbz7fEBPFgG0wQD2ozQcwfPa1qwgTS6YB09kE6XZBOD6TTB+kcgHQOQTor7gIqIVRGG1RKG1ROG1RSG1RWG1RaG1ReG1RiG1Rmh6jMDmFrNSqzQ1Rmh6Uyu7hp34pUdZs+hYx4hapb8SlkxLqvbrenkBFrvrqlnkJGrHeFbZ5GB5THchtTmOFpdECpLPcwhcWdRgeUzXIDUxjXadZBUD7L3UthR6fRAeWz3Lqqm8ytyChs5TQ64uVRWMdpdMRyV9jDaXTEcldYwGl0xHLX2LyphFAZLXcwjXmbSgiV1HIT01iyqYRQeS33MY3RmmplRGW23Mo09mkqIVRmy92MpmhbYYrGaU5zmtOc5jSnOc1pTnOa05zmNKc5zemHNH3Tmny0cTwc2F8i94cq02rTFP/OmdAU/3bQFL/UoCk+TfFLDJri/3nQFP/Pg6b4JQdN8WmK/8VBU3ziEIc4xCEOcYhDHOIQhzjEIc42WEqShjSkIQ1pSEMa0pCGNKQhzfbQfDVWlsQhDnGIQxziEIc4xCEOcYhTPd5/wRT/2fDKjpPhZDyySUJL/IdliT+JPwQn5+fDs6Edn938/8EPwqfvEfhQ1WgyyHwYG0LDTYcy4FRSfkoliM4oyc2x4wIAkKLYYA=="
               },
               {
                  "name" : "annual_peak_electric_demand",
                  "units" : "kW",
                  "value" : 365.7405
               },
               {
                  "name" : "first_year_capital_cost",
                  "units" : "$",
                  "value" : 0
               },
               {
                  "name" : "annual_utility_cost",
                  "units" : "$",
                  "value" : 92990.279999999999
               },
               {
                  "name" : "total_lifecycle_cost",
                  "units" : "$",
                  "value" : 1556881.73
               }
            ],
            "step_warnings" : [ "A table in Annual Overview section returned false and was skipped." ]
         }
      }
   ],
   "updated_at" : "20170710T194626Z",
   "weather_file" : "USA_CO_Denver.Intl.AP.725650_TMY3.epw"
}
