{
   "completed_at" : "20170710T190146Z",
   "completed_status" : "Success",
   "created_at" : "2017-07-10 18:58:53 +0000",
   "current_step" : 5,
   "description" : "",
   "eplusout_err" : "Program Version,EnergyPlus, Version 8.7.0-78a111df4a, YMD=2017.07.10 19:00,IDD_Version 8.7.0\n   ************* IDF Context for following error/warning message:\n   ************* Note -- lines truncated at 300 characters, if necessary...\n   *************      5 Building,\n   ************* indicated Name=NECB 2011-RetailStripmall-NECB HDD Method-CAN_PE_Charlottetown.717060_CWEC.epw created: 2017-07-10 18:58:59 +0000\n   ************* Only last 1 lines before error line shown.....\n   *************      6   NECB 2011-RetailStripmall-NECB HDD Method-CAN_PE_Charlottetown.717060_CWEC.epw created: 2017-07-10 18:58:59 +0000, !- Name\n   ** Warning ** IP: IDF line~6 Alpha Argument length exceeds maximum, will be truncated=  NECB 2011-RetailStripmall-NECB HDD Method-CAN_PE_Charlottetown.717060_CWEC.epw created: 2017-07-10 18:58:59 +000\n   **   ~~~   ** Will be processed as Alpha=NECB 2011-RETAILSTRIPMALL-NECB HDD METHOD-CAN_PE_CHARLOTTETOWN.717060_CWEC.EPW CREATED: 2017-07-10 18:58:59 +0000\n   ************* Beginning Zone Sizing Calculations\n   ** Warning ** ProcessScheduleInput: Schedule:Day:Interval=\"ECONOMIZER MAX OA FRACTION 100 PCT DEFAULT\", Blank Schedule Type Limits Name input -- will not be validated.\n   ** Warning ** ProcessScheduleInput: Schedule:Day:Interval=\"SCHEDULE DAY 1\", Blank Schedule Type Limits Name input -- will not be validated.\n   ** Warning ** ProcessScheduleInput: Schedule:Day:Interval=\"SCHEDULE DAY 10\", Blank Schedule Type Limits Name input -- will not be validated.\n   ** Warning ** ProcessScheduleInput: Schedule:Day:Interval=\"SCHEDULE DAY 11\", Blank Schedule Type Limits Name input -- will not be validated.\n   ** Warning ** ProcessScheduleInput: Schedule:Day:Interval=\"SCHEDULE DAY 12\", Blank Schedule Type Limits Name input -- will not be validated.\n   ** Warning ** ProcessScheduleInput: Schedule:Day:Interval=\"SCHEDULE DAY 13\", Blank Schedule Type Limits Name input -- will not be validated.\n   ** Warning ** ProcessScheduleInput: Schedule:Day:Interval=\"SCHEDULE DAY 14\", Blank Schedule Type Limits Name input -- will not be validated.\n   ** Warning ** ProcessScheduleInput: Schedule:Day:Interval=\"SCHEDULE DAY 15\", Blank Schedule Type Limits Name input -- will not be validated.\n   ** Warning ** ProcessScheduleInput: Schedule:Day:Interval=\"SCHEDULE DAY 16\", Blank Schedule Type Limits Name input -- will not be validated.\n   ** Warning ** ProcessScheduleInput: Schedule:Day:Interval=\"SCHEDULE DAY 17\", Blank Schedule Type Limits Name input -- will not be validated.\n   ** Warning ** ProcessScheduleInput: Schedule:Day:Interval=\"SCHEDULE DAY 18\", Blank Schedule Type Limits Name input -- will not be validated.\n   ** Warning ** ProcessScheduleInput: Schedule:Day:Interval=\"SCHEDULE DAY 19\", Blank Schedule Type Limits Name input -- will not be validated.\n   ** Warning ** ProcessScheduleInput: Schedule:Day:Interval=\"SCHEDULE DAY 2\", Blank Schedule Type Limits Name input -- will not be validated.\n   ** Warning ** ProcessScheduleInput: Schedule:Day:Interval=\"SCHEDULE DAY 20\", Blank Schedule Type Limits Name input -- will not be validated.\n   ** Warning ** ProcessScheduleInput: Schedule:Day:Interval=\"SCHEDULE DAY 21\", Blank Schedule Type Limits Name input -- will not be validated.\n   ** Warning ** ProcessScheduleInput: Schedule:Day:Interval=\"SCHEDULE DAY 22\", Blank Schedule Type Limits Name input -- will not be validated.\n   ** Warning ** ProcessScheduleInput: Schedule:Day:Interval=\"SCHEDULE DAY 23\", Blank Schedule Type Limits Name input -- will not be validated.\n   ** Warning ** ProcessScheduleInput: Schedule:Day:Interval=\"SCHEDULE DAY 24\", Blank Schedule Type Limits Name input -- will not be validated.\n   ** Warning ** ProcessScheduleInput: Schedule:Day:Interval=\"SCHEDULE DAY 25\", Blank Schedule Type Limits Name input -- will not be validated.\n   ** Warning ** ProcessScheduleInput: Schedule:Day:Interval=\"SCHEDULE DAY 26\", Blank Schedule Type Limits Name input -- will not be validated.\n   ** Warning ** ProcessScheduleInput: Schedule:Day:Interval=\"SCHEDULE DAY 27\", Blank Schedule Type Limits Name input -- will not be validated.\n   ** Warning ** ProcessScheduleInput: Schedule:Day:Interval=\"SCHEDULE DAY 28\", Blank Schedule Type Limits Name input -- will not be validated.\n   ** Warning ** ProcessScheduleInput: Schedule:Day:Interval=\"SCHEDULE DAY 29\", Blank Schedule Type Limits Name input -- will not be validated.\n   ** Warning ** ProcessScheduleInput: Schedule:Day:Interval=\"SCHEDULE DAY 30\", Blank Schedule Type Limits Name input -- will not be validated.\n   ** Warning ** ProcessScheduleInput: Schedule:Day:Interval=\"SCHEDULE DAY 31\", Blank Schedule Type Limits Name input -- will not be validated.\n   ** Warning ** ProcessScheduleInput: Schedule:Day:Interval=\"SCHEDULE DAY 32\", Blank Schedule Type Limits Name input -- will not be validated.\n   ** Warning ** ProcessScheduleInput: Schedule:Day:Interval=\"SCHEDULE DAY 33\", Blank Schedule Type Limits Name input -- will not be validated.\n   ** Warning ** ProcessScheduleInput: Schedule:Day:Interval=\"SCHEDULE DAY 34\", Blank Schedule Type Limits Name input -- will not be validated.\n   ** Warning ** ProcessScheduleInput: Schedule:Day:Interval=\"SCHEDULE DAY 35\", Blank Schedule Type Limits Name input -- will not be validated.\n   ** Warning ** ProcessScheduleInput: Schedule:Day:Interval=\"SCHEDULE DAY 36\", Blank Schedule Type Limits Name input -- will not be validated.\n   ** Warning ** ProcessScheduleInput: Schedule:Day:Interval=\"SCHEDULE DAY 37\", Blank Schedule Type Limits Name input -- will not be validated.\n   ** Warning ** ProcessScheduleInput: Schedule:Day:Interval=\"SCHEDULE DAY 38\", Blank Schedule Type Limits Name input -- will not be validated.\n   ** Warning ** ProcessScheduleInput: Schedule:Day:Interval=\"SCHEDULE DAY 39\", Blank Schedule Type Limits Name input -- will not be validated.\n   ** Warning ** ProcessScheduleInput: Schedule:Day:Interval=\"SCHEDULE DAY 40\", Blank Schedule Type Limits Name input -- will not be validated.\n   ** Warning ** ProcessScheduleInput: Schedule:Day:Interval=\"SCHEDULE DAY 41\", Blank Schedule Type Limits Name input -- will not be validated.\n   ** Warning ** ProcessScheduleInput: Schedule:Day:Interval=\"SCHEDULE DAY 42\", Blank Schedule Type Limits Name input -- will not be validated.\n   ** Warning ** ProcessScheduleInput: Schedule:Day:Interval=\"SCHEDULE DAY 43\", Blank Schedule Type Limits Name input -- will not be validated.\n   ** Warning ** ProcessScheduleInput: Schedule:Day:Interval=\"SCHEDULE DAY 44\", Blank Schedule Type Limits Name input -- will not be validated.\n   ** Warning ** ProcessScheduleInput: Schedule:Day:Interval=\"SCHEDULE DAY 45\", Blank Schedule Type Limits Name input -- will not be validated.\n   ** Warning ** ProcessScheduleInput: Schedule:Day:Interval=\"SCHEDULE DAY 46\", Blank Schedule Type Limits Name input -- will not be validated.\n   ** Warning ** ProcessScheduleInput: Schedule:Day:Interval=\"SCHEDULE DAY 47\", Blank Schedule Type Limits Name input -- will not be validated.\n   ** Warning ** ProcessScheduleInput: Schedule:Day:Interval=\"SCHEDULE DAY 48\", Blank Schedule Type Limits Name input -- will not be validated.\n   ** Warning ** ProcessScheduleInput: Schedule:Day:Interval=\"SCHEDULE DAY 49\", Blank Schedule Type Limits Name input -- will not be validated.\n   ** Warning ** ProcessScheduleInput: Schedule:Day:Interval=\"SCHEDULE DAY 5\", Blank Schedule Type Limits Name input -- will not be validated.\n   ** Warning ** ProcessScheduleInput: Schedule:Day:Interval=\"SCHEDULE DAY 50\", Blank Schedule Type Limits Name input -- will not be validated.\n   ** Warning ** ProcessScheduleInput: Schedule:Day:Interval=\"SCHEDULE DAY 51\", Blank Schedule Type Limits Name input -- will not be validated.\n   ** Warning ** ProcessScheduleInput: Schedule:Day:Interval=\"SCHEDULE DAY 52\", Blank Schedule Type Limits Name input -- will not be validated.\n   ** Warning ** ProcessScheduleInput: Schedule:Day:Interval=\"SCHEDULE DAY 53\", Blank Schedule Type Limits Name input -- will not be validated.\n   ** Warning ** ProcessScheduleInput: Schedule:Day:Interval=\"SCHEDULE DAY 54\", Blank Schedule Type Limits Name input -- will not be validated.\n   ** Warning ** ProcessScheduleInput: Schedule:Day:Interval=\"SCHEDULE DAY 6\", Blank Schedule Type Limits Name input -- will not be validated.\n   ** Warning ** ProcessScheduleInput: Schedule:Day:Interval=\"SCHEDULE DAY 7\", Blank Schedule Type Limits Name input -- will not be validated.\n   ** Warning ** ProcessScheduleInput: Schedule:Day:Interval=\"SCHEDULE DAY 8\", Blank Schedule Type Limits Name input -- will not be validated.\n   ** Warning ** ProcessScheduleInput: Schedule:Day:Interval=\"SCHEDULE DAY 9\", Blank Schedule Type Limits Name input -- will not be validated.\n   ** Warning ** ProcessScheduleInput: Schedule:Year=\"ECONOMIZER MAX OA FRACTION 100 PCT\", Blank Schedule Type Limits Name input -- will not be validated.\n   ** Warning ** ProcessScheduleInput: Schedule:Year=\"SCHEDULE RULESET 10\", Blank Schedule Type Limits Name input -- will not be validated.\n   ** Warning ** ProcessScheduleInput: Schedule:Year=\"SCHEDULE RULESET 11\", Blank Schedule Type Limits Name input -- will not be validated.\n   ** Warning ** ProcessScheduleInput: Schedule:Year=\"SCHEDULE RULESET 12\", Blank Schedule Type Limits Name input -- will not be validated.\n   ** Warning ** ProcessScheduleInput: Schedule:Year=\"SCHEDULE RULESET 13\", Blank Schedule Type Limits Name input -- will not be validated.\n   ** Warning ** ProcessScheduleInput: Schedule:Year=\"SCHEDULE RULESET 14\", Blank Schedule Type Limits Name input -- will not be validated.\n   ** Warning ** ProcessScheduleInput: Schedule:Year=\"SCHEDULE RULESET 15\", Blank Schedule Type Limits Name input -- will not be validated.\n   ** Warning ** ProcessScheduleInput: Schedule:Year=\"SCHEDULE RULESET 16\", Blank Schedule Type Limits Name input -- will not be validated.\n   ** Warning ** ProcessScheduleInput: Schedule:Year=\"SCHEDULE RULESET 17\", Blank Schedule Type Limits Name input -- will not be validated.\n   ** Warning ** ProcessScheduleInput: Schedule:Year=\"SCHEDULE RULESET 18\", Blank Schedule Type Limits Name input -- will not be validated.\n   ** Warning ** ProcessScheduleInput: Schedule:Year=\"SCHEDULE RULESET 19\", Blank Schedule Type Limits Name input -- will not be validated.\n   ** Warning ** ProcessScheduleInput: Schedule:Year=\"SCHEDULE RULESET 20\", Blank Schedule Type Limits Name input -- will not be validated.\n   ** Warning ** ProcessScheduleInput: Schedule:Year=\"SCHEDULE RULESET 21\", Blank Schedule Type Limits Name input -- will not be validated.\n   ** Warning ** ProcessScheduleInput: Schedule:Year=\"SCHEDULE RULESET 22\", Blank Schedule Type Limits Name input -- will not be validated.\n   ** Warning ** ProcessScheduleInput: Schedule:Year=\"SCHEDULE RULESET 23\", Blank Schedule Type Limits Name input -- will not be validated.\n   ** Warning ** ProcessScheduleInput: Schedule:Year=\"SCHEDULE RULESET 24\", Blank Schedule Type Limits Name input -- will not be validated.\n   ** Warning ** ProcessScheduleInput: Schedule:Year=\"SCHEDULE RULESET 25\", Blank Schedule Type Limits Name input -- will not be validated.\n   ** Warning ** ProcessScheduleInput: Schedule:Year=\"SCHEDULE RULESET 26\", Blank Schedule Type Limits Name input -- will not be validated.\n   ** Warning ** ProcessScheduleInput: Schedule:Year=\"SCHEDULE RULESET 27\", Blank Schedule Type Limits Name input -- will not be validated.\n   ** Warning ** ProcessScheduleInput: Schedule:Year=\"SCHEDULE RULESET 28\", Blank Schedule Type Limits Name input -- will not be validated.\n   ** Warning ** ProcessScheduleInput: Schedule:Year=\"SCHEDULE RULESET 29\", Blank Schedule Type Limits Name input -- will not be validated.\n   ** Warning ** ProcessScheduleInput: Schedule:Year=\"SCHEDULE RULESET 3\", Blank Schedule Type Limits Name input -- will not be validated.\n   ** Warning ** ProcessScheduleInput: Schedule:Year=\"SCHEDULE RULESET 30\", Blank Schedule Type Limits Name input -- will not be validated.\n   ** Warning ** ProcessScheduleInput: Schedule:Year=\"SCHEDULE RULESET 31\", Blank Schedule Type Limits Name input -- will not be validated.\n   ** Warning ** ProcessScheduleInput: Schedule:Year=\"SCHEDULE RULESET 32\", Blank Schedule Type Limits Name input -- will not be validated.\n   ** Warning ** ProcessScheduleInput: Schedule:Year=\"SCHEDULE RULESET 4\", Blank Schedule Type Limits Name input -- will not be validated.\n   ** Warning ** ProcessScheduleInput: Schedule:Year=\"SCHEDULE RULESET 5\", Blank Schedule Type Limits Name input -- will not be validated.\n   ** Warning ** ProcessScheduleInput: Schedule:Year=\"SCHEDULE RULESET 6\", Blank Schedule Type Limits Name input -- will not be validated.\n   ** Warning ** ProcessScheduleInput: Schedule:Year=\"SCHEDULE RULESET 7\", Blank Schedule Type Limits Name input -- will not be validated.\n   ** Warning ** ProcessScheduleInput: Schedule:Year=\"SCHEDULE RULESET 8\", Blank Schedule Type Limits Name input -- will not be validated.\n   ** Warning ** ProcessScheduleInput: Schedule:Year=\"SCHEDULE RULESET 9\", Blank Schedule Type Limits Name input -- will not be validated.\n   ** Warning ** ProcessScheduleInput: Schedule:Constant=\"ALWAYS OFF DISCRETE\", Blank Schedule Type Limits Name input -- will not be validated.\n   ** Warning ** ProcessScheduleInput: Schedule:Constant=\"ALWAYS ON CONTINUOUS\", Blank Schedule Type Limits Name input -- will not be validated.\n   ** Warning ** CheckUsedConstructions: There are 24 nominally unused constructions in input.\n   **   ~~~   ** For explicit details on each unused construction, use Output:Diagnostics,DisplayExtraWarnings;\n   ************* Beginning System Sizing Calculations\n   ************* Beginning Plant Sizing Calculations\n   ** Warning ** GetDXCoils: Coil:Cooling:DX:SingleSpeed=\"COIL COOLING DX SINGLE SPEED 10 66KBTU/HR 9.7EER\", invalid\n   **   ~~~   ** ...Part Load Fraction Correlation Curve Name = DXCOOL-NECB2011-REF-COOLPLFFPLR 1 has out of range value.\n   **   ~~~   ** ...Curve maximum must be <= 1.0, curve max at PLR = 0.99 is 1.015\n   **   ~~~   ** ...Setting curve maximum to 1.0 and simulation continues.\n   ** Warning ** GetDXCoils: Coil:Cooling:DX:SingleSpeed=\"COIL COOLING DX SINGLE SPEED 1 65KBTU/HR 14.0SEER\", invalid\n   **   ~~~   ** ...Part Load Fraction Correlation Curve Name = DXCOOL-NECB2011-REF-COOLPLFFPLR has out of range value.\n   **   ~~~   ** ...Curve maximum must be <= 1.0, curve max at PLR = 0.99 is 1.015\n   **   ~~~   ** ...Setting curve maximum to 1.0 and simulation continues.\n   ** Warning ** GetDXCoils: Coil:Cooling:DX:SingleSpeed=\"COIL COOLING DX SINGLE SPEED 3 34KBTU/HR 14.0SEER\", invalid\n   **   ~~~   ** ...Part Load Fraction Correlation Curve Name = DXCOOL-NECB2011-REF-COOLPLFFPLR 3 has out of range value.\n   **   ~~~   ** ...Curve maximum must be <= 1.0, curve max at PLR = 0.99 is 1.015\n   **   ~~~   ** ...Setting curve maximum to 1.0 and simulation continues.\n   ** Warning ** GetDXCoils: Coil:Cooling:DX:SingleSpeed=\"COIL COOLING DX SINGLE SPEED 2 33KBTU/HR 14.0SEER\", invalid\n   **   ~~~   ** ...Part Load Fraction Correlation Curve Name = DXCOOL-NECB2011-REF-COOLPLFFPLR 2 has out of range value.\n   **   ~~~   ** ...Curve maximum must be <= 1.0, curve max at PLR = 0.99 is 1.015\n   **   ~~~   ** ...Setting curve maximum to 1.0 and simulation continues.\n   ** Warning ** GetDXCoils: Coil:Cooling:DX:SingleSpeed=\"COIL COOLING DX SINGLE SPEED 6 33KBTU/HR 14.0SEER\", invalid\n   **   ~~~   ** ...Part Load Fraction Correlation Curve Name = DXCOOL-NECB2011-REF-COOLPLFFPLR 6 has out of range value.\n   **   ~~~   ** ...Curve maximum must be <= 1.0, curve max at PLR = 0.99 is 1.015\n   **   ~~~   ** ...Setting curve maximum to 1.0 and simulation continues.\n   ** Warning ** GetDXCoils: Coil:Cooling:DX:SingleSpeed=\"COIL COOLING DX SINGLE SPEED 8 34KBTU/HR 14.0SEER\", invalid\n   **   ~~~   ** ...Part Load Fraction Correlation Curve Name = DXCOOL-NECB2011-REF-COOLPLFFPLR 8 has out of range value.\n   **   ~~~   ** ...Curve maximum must be <= 1.0, curve max at PLR = 0.99 is 1.015\n   **   ~~~   ** ...Setting curve maximum to 1.0 and simulation continues.\n   ** Warning ** GetDXCoils: Coil:Cooling:DX:SingleSpeed=\"COIL COOLING DX SINGLE SPEED 7 34KBTU/HR 14.0SEER\", invalid\n   **   ~~~   ** ...Part Load Fraction Correlation Curve Name = DXCOOL-NECB2011-REF-COOLPLFFPLR 7 has out of range value.\n   **   ~~~   ** ...Curve maximum must be <= 1.0, curve max at PLR = 0.99 is 1.015\n   **   ~~~   ** ...Setting curve maximum to 1.0 and simulation continues.\n   ** Warning ** GetDXCoils: Coil:Cooling:DX:SingleSpeed=\"COIL COOLING DX SINGLE SPEED 5 33KBTU/HR 14.0SEER\", invalid\n   **   ~~~   ** ...Part Load Fraction Correlation Curve Name = DXCOOL-NECB2011-REF-COOLPLFFPLR 5 has out of range value.\n   **   ~~~   ** ...Curve maximum must be <= 1.0, curve max at PLR = 0.99 is 1.015\n   **   ~~~   ** ...Setting curve maximum to 1.0 and simulation continues.\n   ** Warning ** GetDXCoils: Coil:Cooling:DX:SingleSpeed=\"COIL COOLING DX SINGLE SPEED 4 33KBTU/HR 14.0SEER\", invalid\n   **   ~~~   ** ...Part Load Fraction Correlation Curve Name = DXCOOL-NECB2011-REF-COOLPLFFPLR 4 has out of range value.\n   **   ~~~   ** ...Curve maximum must be <= 1.0, curve max at PLR = 0.99 is 1.015\n   **   ~~~   ** ...Setting curve maximum to 1.0 and simulation continues.\n   ** Warning ** GetDXCoils: Coil:Cooling:DX:SingleSpeed=\"COIL COOLING DX SINGLE SPEED 9 34KBTU/HR 14.0SEER\", invalid\n   **   ~~~   ** ...Part Load Fraction Correlation Curve Name = DXCOOL-NECB2011-REF-COOLPLFFPLR 9 has out of range value.\n   **   ~~~   ** ...Curve maximum must be <= 1.0, curve max at PLR = 0.99 is 1.015\n   **   ~~~   ** ...Setting curve maximum to 1.0 and simulation continues.\n   ** Warning ** The Standard Ratings is calculated for Coil:Cooling:DX:SingleSpeed = COIL COOLING DX SINGLE SPEED 10 66KBTU/HR 9.7EER but not at the AHRI test condition due to curve out of bound.\n   **   ~~~   **  Review the Standard Ratings calculations in the Engineering Reference for this coil type. Also, use Output:Diagnostics, DisplayExtraWarnings for further guidance.\n   ** Warning ** The Standard Ratings is calculated for Coil:Cooling:DX:SingleSpeed = COIL COOLING DX SINGLE SPEED 1 65KBTU/HR 14.0SEER but not at the AHRI test condition due to curve out of bound.\n   **   ~~~   **  Review the Standard Ratings calculations in the Engineering Reference for this coil type. Also, use Output:Diagnostics, DisplayExtraWarnings for further guidance.\n   ** Warning ** The Standard Ratings is calculated for Coil:Cooling:DX:SingleSpeed = COIL COOLING DX SINGLE SPEED 3 34KBTU/HR 14.0SEER but not at the AHRI test condition due to curve out of bound.\n   **   ~~~   **  Review the Standard Ratings calculations in the Engineering Reference for this coil type. Also, use Output:Diagnostics, DisplayExtraWarnings for further guidance.\n   ** Warning ** The Standard Ratings is calculated for Coil:Cooling:DX:SingleSpeed = COIL COOLING DX SINGLE SPEED 2 33KBTU/HR 14.0SEER but not at the AHRI test condition due to curve out of bound.\n   **   ~~~   **  Review the Standard Ratings calculations in the Engineering Reference for this coil type. Also, use Output:Diagnostics, DisplayExtraWarnings for further guidance.\n   ** Warning ** The Standard Ratings is calculated for Coil:Cooling:DX:SingleSpeed = COIL COOLING DX SINGLE SPEED 6 33KBTU/HR 14.0SEER but not at the AHRI test condition due to curve out of bound.\n   **   ~~~   **  Review the Standard Ratings calculations in the Engineering Reference for this coil type. Also, use Output:Diagnostics, DisplayExtraWarnings for further guidance.\n   ** Warning ** The Standard Ratings is calculated for Coil:Cooling:DX:SingleSpeed = COIL COOLING DX SINGLE SPEED 8 34KBTU/HR 14.0SEER but not at the AHRI test condition due to curve out of bound.\n   **   ~~~   **  Review the Standard Ratings calculations in the Engineering Reference for this coil type. Also, use Output:Diagnostics, DisplayExtraWarnings for further guidance.\n   ** Warning ** The Standard Ratings is calculated for Coil:Cooling:DX:SingleSpeed = COIL COOLING DX SINGLE SPEED 7 34KBTU/HR 14.0SEER but not at the AHRI test condition due to curve out of bound.\n   **   ~~~   **  Review the Standard Ratings calculations in the Engineering Reference for this coil type. Also, use Output:Diagnostics, DisplayExtraWarnings for further guidance.\n   ** Warning ** The Standard Ratings is calculated for Coil:Cooling:DX:SingleSpeed = COIL COOLING DX SINGLE SPEED 5 33KBTU/HR 14.0SEER but not at the AHRI test condition due to curve out of bound.\n   **   ~~~   **  Review the Standard Ratings calculations in the Engineering Reference for this coil type. Also, use Output:Diagnostics, DisplayExtraWarnings for further guidance.\n   ** Warning ** The Standard Ratings is calculated for Coil:Cooling:DX:SingleSpeed = COIL COOLING DX SINGLE SPEED 4 33KBTU/HR 14.0SEER but not at the AHRI test condition due to curve out of bound.\n   **   ~~~   **  Review the Standard Ratings calculations in the Engineering Reference for this coil type. Also, use Output:Diagnostics, DisplayExtraWarnings for further guidance.\n   ** Warning ** The Standard Ratings is calculated for Coil:Cooling:DX:SingleSpeed = COIL COOLING DX SINGLE SPEED 9 34KBTU/HR 14.0SEER but not at the AHRI test condition due to curve out of bound.\n   **   ~~~   **  Review the Standard Ratings calculations in the Engineering Reference for this coil type. Also, use Output:Diagnostics, DisplayExtraWarnings for further guidance.\n   ** Warning ** Check input. Pump nominal power or motor efficiency is set to 0, for pump=SERVICE WATER LOOP PUMP\n   ** Warning ** Output:Meter: invalid Name=\"GAS:FACILITY\" - not found.\n   ** Warning ** Output:Meter: invalid Name=\"DISTRICTCOOLING:FACILITY\" - not found.\n   ** Warning ** Output:Meter: invalid Name=\"DISTRICTHEATING:FACILITY\" - not found.\n   ** Warning ** Output:Meter:MeterFileOnly: invalid Name=\"GAS:FACILITY\" - not found.\n   ** Warning ** Output:Meter:MeterFileOnly requested for \"Electricity:Facility\" (TimeStep), already on \"Output:Meter\". Will report to both eplusout.eso and eplusout.mtr\n   ************* Testing Individual Branch Integrity\n   ************* All Branches passed integrity testing\n   ************* Testing Individual Supply Air Path Integrity\n   ************* All Supply Air Paths passed integrity testing\n   ************* Testing Individual Return Air Path Integrity\n   ************* All Return Air Paths passed integrity testing\n   ************* No node connection errors were found.\n   ************* Beginning Simulation\n   ** Warning ** CalcDoe2DXCoil: Coil:Cooling:DX:SingleSpeed \"COIL COOLING DX SINGLE SPEED 10 66KBTU/HR 9.7EER\" - Air-cooled condenser inlet dry-bulb temperature below 0 C. Outdoor dry-bulb temperature = -4.85\n   **   ~~~   **  ... Occurrence info = RUN PERIOD 1, 01/02 07:03 - 07:05\n   **   ~~~   ** ... Operation at low ambient temperatures may require special performance curves.\n   ** Warning ** CalcDoe2DXCoil: Coil:Cooling:DX:SingleSpeed \"COIL COOLING DX SINGLE SPEED 1 65KBTU/HR 14.0SEER\" - Air-cooled condenser inlet dry-bulb temperature below 0 C. Outdoor dry-bulb temperature = -4.85\n   **   ~~~   **  ... Occurrence info = RUN PERIOD 1, 01/02 07:03 - 07:05\n   **   ~~~   ** ... Operation at low ambient temperatures may require special performance curves.\n   ** Warning ** CalcDoe2DXCoil: Coil:Cooling:DX:SingleSpeed \"COIL COOLING DX SINGLE SPEED 3 34KBTU/HR 14.0SEER\" - Air-cooled condenser inlet dry-bulb temperature below 0 C. Outdoor dry-bulb temperature = -4.85\n   **   ~~~   **  ... Occurrence info = RUN PERIOD 1, 01/02 07:03 - 07:05\n   **   ~~~   ** ... Operation at low ambient temperatures may require special performance curves.\n   ** Warning ** CalcDoe2DXCoil: Coil:Cooling:DX:SingleSpeed \"COIL COOLING DX SINGLE SPEED 2 33KBTU/HR 14.0SEER\" - Air-cooled condenser inlet dry-bulb temperature below 0 C. Outdoor dry-bulb temperature = -4.85\n   **   ~~~   **  ... Occurrence info = RUN PERIOD 1, 01/02 07:03 - 07:05\n   **   ~~~   ** ... Operation at low ambient temperatures may require special performance curves.\n   ** Warning ** CalcDoe2DXCoil: Coil:Cooling:DX:SingleSpeed \"COIL COOLING DX SINGLE SPEED 6 33KBTU/HR 14.0SEER\" - Air-cooled condenser inlet dry-bulb temperature below 0 C. Outdoor dry-bulb temperature = -4.85\n   **   ~~~   **  ... Occurrence info = RUN PERIOD 1, 01/02 07:03 - 07:05\n   **   ~~~   ** ... Operation at low ambient temperatures may require special performance curves.\n   ** Warning ** CalcDoe2DXCoil: Coil:Cooling:DX:SingleSpeed \"COIL COOLING DX SINGLE SPEED 8 34KBTU/HR 14.0SEER\" - Air-cooled condenser inlet dry-bulb temperature below 0 C. Outdoor dry-bulb temperature = -4.85\n   **   ~~~   **  ... Occurrence info = RUN PERIOD 1, 01/02 07:03 - 07:05\n   **   ~~~   ** ... Operation at low ambient temperatures may require special performance curves.\n   ** Warning ** CalcDoe2DXCoil: Coil:Cooling:DX:SingleSpeed \"COIL COOLING DX SINGLE SPEED 7 34KBTU/HR 14.0SEER\" - Air-cooled condenser inlet dry-bulb temperature below 0 C. Outdoor dry-bulb temperature = -4.85\n   **   ~~~   **  ... Occurrence info = RUN PERIOD 1, 01/02 07:03 - 07:05\n   **   ~~~   ** ... Operation at low ambient temperatures may require special performance curves.\n   ** Warning ** CalcDoe2DXCoil: Coil:Cooling:DX:SingleSpeed \"COIL COOLING DX SINGLE SPEED 5 33KBTU/HR 14.0SEER\" - Air-cooled condenser inlet dry-bulb temperature below 0 C. Outdoor dry-bulb temperature = -4.85\n   **   ~~~   **  ... Occurrence info = RUN PERIOD 1, 01/02 07:03 - 07:05\n   **   ~~~   ** ... Operation at low ambient temperatures may require special performance curves.\n   ** Warning ** CalcDoe2DXCoil: Coil:Cooling:DX:SingleSpeed \"COIL COOLING DX SINGLE SPEED 4 33KBTU/HR 14.0SEER\" - Air-cooled condenser inlet dry-bulb temperature below 0 C. Outdoor dry-bulb temperature = -4.85\n   **   ~~~   **  ... Occurrence info = RUN PERIOD 1, 01/02 07:03 - 07:05\n   **   ~~~   ** ... Operation at low ambient temperatures may require special performance curves.\n   ** Warning ** CalcDoe2DXCoil: Coil:Cooling:DX:SingleSpeed \"COIL COOLING DX SINGLE SPEED 9 34KBTU/HR 14.0SEER\" - Air-cooled condenser inlet dry-bulb temperature below 0 C. Outdoor dry-bulb temperature = -4.85\n   **   ~~~   **  ... Occurrence info = RUN PERIOD 1, 01/02 07:03 - 07:05\n   **   ~~~   ** ... Operation at low ambient temperatures may require special performance curves.\n   ** Warning ** CalcDoe2DXCoil: Coil:Cooling:DX:SingleSpeed \"COIL COOLING DX SINGLE SPEED 1 65KBTU/HR 14.0SEER\" - Full load outlet air dry-bulb temperature < 2C. This indicates the possibility of coil frost/freeze. Outlet temperature = 1.68 C.\n   **   ~~~   **  ...Occurrence info = RUN PERIOD 1, 01/10 11:45 - 12:00\n   **   ~~~   ** ... Possible reasons for low outlet air dry-bulb temperatures are: This DX coil\n   **   ~~~   **    1) may have a low inlet air dry-bulb temperature. Inlet air temperature = 14.751 C.\n   **   ~~~   **    2) may have a low air flow rate per watt of cooling capacity. Check inputs.\n   **   ~~~   **    3) is used as part of a HX assisted cooling coil which uses a high sensible effectiveness. Check inputs.\n   ** Warning ** CalcDoe2DXCoil: Coil:Cooling:DX:SingleSpeed \"COIL COOLING DX SINGLE SPEED 2 33KBTU/HR 14.0SEER\" - Full load outlet air dry-bulb temperature < 2C. This indicates the possibility of coil frost/freeze. Outlet temperature = 1.86 C.\n   **   ~~~   **  ...Occurrence info = RUN PERIOD 1, 01/10 11:45 - 12:00\n   **   ~~~   ** ... Possible reasons for low outlet air dry-bulb temperatures are: This DX coil\n   **   ~~~   **    1) may have a low inlet air dry-bulb temperature. Inlet air temperature = 14.924 C.\n   **   ~~~   **    2) may have a low air flow rate per watt of cooling capacity. Check inputs.\n   **   ~~~   **    3) is used as part of a HX assisted cooling coil which uses a high sensible effectiveness. Check inputs.\n   ** Warning ** CalcDoe2DXCoil: Coil:Cooling:DX:SingleSpeed \"COIL COOLING DX SINGLE SPEED 6 33KBTU/HR 14.0SEER\" - Full load outlet air dry-bulb temperature < 2C. This indicates the possibility of coil frost/freeze. Outlet temperature = 1.86 C.\n   **   ~~~   **  ...Occurrence info = RUN PERIOD 1, 01/10 11:45 - 12:00\n   **   ~~~   ** ... Possible reasons for low outlet air dry-bulb temperatures are: This DX coil\n   **   ~~~   **    1) may have a low inlet air dry-bulb temperature. Inlet air temperature = 14.922 C.\n   **   ~~~   **    2) may have a low air flow rate per watt of cooling capacity. Check inputs.\n   **   ~~~   **    3) is used as part of a HX assisted cooling coil which uses a high sensible effectiveness. Check inputs.\n   ** Warning ** CalcDoe2DXCoil: Coil:Cooling:DX:SingleSpeed \"COIL COOLING DX SINGLE SPEED 5 33KBTU/HR 14.0SEER\" - Full load outlet air dry-bulb temperature < 2C. This indicates the possibility of coil frost/freeze. Outlet temperature = 1.86 C.\n   **   ~~~   **  ...Occurrence info = RUN PERIOD 1, 01/10 11:45 - 12:00\n   **   ~~~   ** ... Possible reasons for low outlet air dry-bulb temperatures are: This DX coil\n   **   ~~~   **    1) may have a low inlet air dry-bulb temperature. Inlet air temperature = 14.922 C.\n   **   ~~~   **    2) may have a low air flow rate per watt of cooling capacity. Check inputs.\n   **   ~~~   **    3) is used as part of a HX assisted cooling coil which uses a high sensible effectiveness. Check inputs.\n   ** Warning ** CalcDoe2DXCoil: Coil:Cooling:DX:SingleSpeed \"COIL COOLING DX SINGLE SPEED 4 33KBTU/HR 14.0SEER\" - Full load outlet air dry-bulb temperature < 2C. This indicates the possibility of coil frost/freeze. Outlet temperature = 1.86 C.\n   **   ~~~   **  ...Occurrence info = RUN PERIOD 1, 01/10 11:45 - 12:00\n   **   ~~~   ** ... Possible reasons for low outlet air dry-bulb temperatures are: This DX coil\n   **   ~~~   **    1) may have a low inlet air dry-bulb temperature. Inlet air temperature = 14.916 C.\n   **   ~~~   **    2) may have a low air flow rate per watt of cooling capacity. Check inputs.\n   **   ~~~   **    3) is used as part of a HX assisted cooling coil which uses a high sensible effectiveness. Check inputs.\n   ** Warning ** CalcDoe2DXCoil: Coil:Cooling:DX:SingleSpeed \"COIL COOLING DX SINGLE SPEED 3 34KBTU/HR 14.0SEER\" - Full load outlet air dry-bulb temperature < 2C. This indicates the possibility of coil frost/freeze. Outlet temperature = -0.23 C.\n   **   ~~~   **  ...Occurrence info = RUN PERIOD 1, 01/12 13:15 - 13:30\n   **   ~~~   ** ... Possible reasons for low outlet air dry-bulb temperatures are: This DX coil\n   **   ~~~   **    1) may have a low inlet air dry-bulb temperature. Inlet air temperature = 13.987 C.\n   **   ~~~   **    2) may have a low air flow rate per watt of cooling capacity. Check inputs.\n   **   ~~~   **    3) is used as part of a HX assisted cooling coil which uses a high sensible effectiveness. Check inputs.\n   ** Warning ** CalcDoe2DXCoil: Coil:Cooling:DX:SingleSpeed \"COIL COOLING DX SINGLE SPEED 8 34KBTU/HR 14.0SEER\" - Full load outlet air dry-bulb temperature < 2C. This indicates the possibility of coil frost/freeze. Outlet temperature = -0.25 C.\n   **   ~~~   **  ...Occurrence info = RUN PERIOD 1, 01/12 13:15 - 13:30\n   **   ~~~   ** ... Possible reasons for low outlet air dry-bulb temperatures are: This DX coil\n   **   ~~~   **    1) may have a low inlet air dry-bulb temperature. Inlet air temperature = 13.966 C.\n   **   ~~~   **    2) may have a low air flow rate per watt of cooling capacity. Check inputs.\n   **   ~~~   **    3) is used as part of a HX assisted cooling coil which uses a high sensible effectiveness. Check inputs.\n   ** Warning ** CalcDoe2DXCoil: Coil:Cooling:DX:SingleSpeed \"COIL COOLING DX SINGLE SPEED 7 34KBTU/HR 14.0SEER\" - Full load outlet air dry-bulb temperature < 2C. This indicates the possibility of coil frost/freeze. Outlet temperature = -0.25 C.\n   **   ~~~   **  ...Occurrence info = RUN PERIOD 1, 01/12 13:15 - 13:30\n   **   ~~~   ** ... Possible reasons for low outlet air dry-bulb temperatures are: This DX coil\n   **   ~~~   **    1) may have a low inlet air dry-bulb temperature. Inlet air temperature = 13.967 C.\n   **   ~~~   **    2) may have a low air flow rate per watt of cooling capacity. Check inputs.\n   **   ~~~   **    3) is used as part of a HX assisted cooling coil which uses a high sensible effectiveness. Check inputs.\n   ** Warning ** CalcDoe2DXCoil: Coil:Cooling:DX:SingleSpeed \"COIL COOLING DX SINGLE SPEED 10 66KBTU/HR 9.7EER\" - Full load outlet air dry-bulb temperature < 2C. This indicates the possibility of coil frost/freeze. Outlet temperature = -2.56 C.\n   **   ~~~   **  ...Occurrence info = RUN PERIOD 1, 02/27 11:45 - 12:00\n   **   ~~~   ** ... Possible reasons for low outlet air dry-bulb temperatures are: This DX coil\n   **   ~~~   **    1) may have a low inlet air dry-bulb temperature. Inlet air temperature = 12.682 C.\n   **   ~~~   **    2) may have a low air flow rate per watt of cooling capacity. Check inputs.\n   **   ~~~   **    3) is used as part of a HX assisted cooling coil which uses a high sensible effectiveness. Check inputs.\n   ** Warning ** CalcDoe2DXCoil: Coil:Cooling:DX:SingleSpeed \"COIL COOLING DX SINGLE SPEED 9 34KBTU/HR 14.0SEER\" - Full load outlet air dry-bulb temperature < 2C. This indicates the possibility of coil frost/freeze. Outlet temperature = -2.52 C.\n   **   ~~~   **  ...Occurrence info = RUN PERIOD 1, 03/11 12:53 - 13:00\n   **   ~~~   ** ... Possible reasons for low outlet air dry-bulb temperatures are: This DX coil\n   **   ~~~   **    1) may have a low inlet air dry-bulb temperature. Inlet air temperature = 13.353 C.\n   **   ~~~   **    2) may have a low air flow rate per watt of cooling capacity. Check inputs.\n   **   ~~~   **    3) is used as part of a HX assisted cooling coil which uses a high sensible effectiveness. Check inputs.\n   ************* Simulation Error Summary *************\n   ************* There are 9 unused schedules in input.\n   ************* There are 9 unused week schedules in input.\n   ************* There are 32 unused day schedules in input.\n   ************* Use Output:Diagnostics,DisplayUnusedSchedules; to see them.\n   *************\n   ************* ===== Recurring Error Summary =====\n   ************* The following recurring error messages occurred.\n   *************\n   *************  ** Warning ** CalcDoe2DXCoil: Coil:Cooling:DX:SingleSpeed=\"COIL COOLING DX SINGLE SPEED 10 66KBTU/HR 9.7EER\" - Low condenser dry-bulb temperature error continues...\n   *************  **   ~~~   **   This error occurred 134 total times;\n   *************  **   ~~~   **   during Warmup 0 times;\n   *************  **   ~~~   **   during Sizing 0 times.\n   *************  **   ~~~   **   Max=-5.000000E-002 [C]  Min=-18.3 [C]\n   *************\n   *************  ** Warning ** CalcDoe2DXCoil: Coil:Cooling:DX:SingleSpeed=\"COIL COOLING DX SINGLE SPEED 1 65KBTU/HR 14.0SEER\" - Low condenser dry-bulb temperature error continues...\n   *************  **   ~~~   **   This error occurred 134 total times;\n   *************  **   ~~~   **   during Warmup 0 times;\n   *************  **   ~~~   **   during Sizing 0 times.\n   *************  **   ~~~   **   Max=-5.000000E-002 [C]  Min=-22.8 [C]\n   *************\n   *************  ** Warning ** CalcDoe2DXCoil: Coil:Cooling:DX:SingleSpeed=\"COIL COOLING DX SINGLE SPEED 3 34KBTU/HR 14.0SEER\" - Low condenser dry-bulb temperature error continues...\n   *************  **   ~~~   **   This error occurred 162 total times;\n   *************  **   ~~~   **   during Warmup 0 times;\n   *************  **   ~~~   **   during Sizing 0 times.\n   *************  **   ~~~   **   Max=-5.000000E-002 [C]  Min=-18.3 [C]\n   *************\n   *************  ** Warning ** CalcDoe2DXCoil: Coil:Cooling:DX:SingleSpeed=\"COIL COOLING DX SINGLE SPEED 2 33KBTU/HR 14.0SEER\" - Low condenser dry-bulb temperature error continues...\n   *************  **   ~~~   **   This error occurred 150 total times;\n   *************  **   ~~~   **   during Warmup 0 times;\n   *************  **   ~~~   **   during Sizing 0 times.\n   *************  **   ~~~   **   Max=-5.000000E-002 [C]  Min=-18.3 [C]\n   *************\n   *************  ** Warning ** CalcDoe2DXCoil: Coil:Cooling:DX:SingleSpeed=\"COIL COOLING DX SINGLE SPEED 6 33KBTU/HR 14.0SEER\" - Low condenser dry-bulb temperature error continues...\n   *************  **   ~~~   **   This error occurred 150 total times;\n   *************  **   ~~~   **   during Warmup 0 times;\n   *************  **   ~~~   **   during Sizing 0 times.\n   *************  **   ~~~   **   Max=-5.000000E-002 [C]  Min=-18.3 [C]\n   *************\n   *************  ** Warning ** CalcDoe2DXCoil: Coil:Cooling:DX:SingleSpeed=\"COIL COOLING DX SINGLE SPEED 8 34KBTU/HR 14.0SEER\" - Low condenser dry-bulb temperature error continues...\n   *************  **   ~~~   **   This error occurred 161 total times;\n   *************  **   ~~~   **   during Warmup 0 times;\n   *************  **   ~~~   **   during Sizing 0 times.\n   *************  **   ~~~   **   Max=-5.000000E-002 [C]  Min=-18.3 [C]\n   *************\n   *************  ** Warning ** CalcDoe2DXCoil: Coil:Cooling:DX:SingleSpeed=\"COIL COOLING DX SINGLE SPEED 7 34KBTU/HR 14.0SEER\" - Low condenser dry-bulb temperature error continues...\n   *************  **   ~~~   **   This error occurred 161 total times;\n   *************  **   ~~~   **   during Warmup 0 times;\n   *************  **   ~~~   **   during Sizing 0 times.\n   *************  **   ~~~   **   Max=-5.000000E-002 [C]  Min=-18.3 [C]\n   *************\n   *************  ** Warning ** CalcDoe2DXCoil: Coil:Cooling:DX:SingleSpeed=\"COIL COOLING DX SINGLE SPEED 5 33KBTU/HR 14.0SEER\" - Low condenser dry-bulb temperature error continues...\n   *************  **   ~~~   **   This error occurred 150 total times;\n   *************  **   ~~~   **   during Warmup 0 times;\n   *************  **   ~~~   **   during Sizing 0 times.\n   *************  **   ~~~   **   Max=-5.000000E-002 [C]  Min=-18.3 [C]\n   *************\n   *************  ** Warning ** CalcDoe2DXCoil: Coil:Cooling:DX:SingleSpeed=\"COIL COOLING DX SINGLE SPEED 4 33KBTU/HR 14.0SEER\" - Low condenser dry-bulb temperature error continues...\n   *************  **   ~~~   **   This error occurred 148 total times;\n   *************  **   ~~~   **   during Warmup 0 times;\n   *************  **   ~~~   **   during Sizing 0 times.\n   *************  **   ~~~   **   Max=-5.000000E-002 [C]  Min=-18.3 [C]\n   *************\n   *************  ** Warning ** CalcDoe2DXCoil: Coil:Cooling:DX:SingleSpeed=\"COIL COOLING DX SINGLE SPEED 9 34KBTU/HR 14.0SEER\" - Low condenser dry-bulb temperature error continues...\n   *************  **   ~~~   **   This error occurred 146 total times;\n   *************  **   ~~~   **   during Warmup 0 times;\n   *************  **   ~~~   **   during Sizing 0 times.\n   *************  **   ~~~   **   Max=-5.000000E-002 [C]  Min=-19.55 [C]\n   *************\n   *************  ** Warning ** CalcDoe2DXCoil: Coil:Cooling:DX:SingleSpeed=\"COIL COOLING DX SINGLE SPEED 1 65KBTU/HR 14.0SEER\" - Full load outlet temperature indicates a possibility of frost/freeze error continues. Outlet air temperature statistics follow:\n   *************  **   ~~~   **   This error occurred 263 total times;\n   *************  **   ~~~   **   during Warmup 0 times;\n   *************  **   ~~~   **   during Sizing 0 times.\n   *************  **   ~~~   **   Max=1.998989  Min=-3.714709\n   *************\n   *************  ** Warning ** CalcDoe2DXCoil: Coil:Cooling:DX:SingleSpeed=\"COIL COOLING DX SINGLE SPEED 2 33KBTU/HR 14.0SEER\" - Full load outlet temperature indicates a possibility of frost/freeze error continues. Outlet air temperature statistics follow:\n   *************  **   ~~~   **   This error occurred 246 total times;\n   *************  **   ~~~   **   during Warmup 0 times;\n   *************  **   ~~~   **   during Sizing 0 times.\n   *************  **   ~~~   **   Max=1.99539  Min=-3.457732\n   *************\n   *************  ** Warning ** CalcDoe2DXCoil: Coil:Cooling:DX:SingleSpeed=\"COIL COOLING DX SINGLE SPEED 6 33KBTU/HR 14.0SEER\" - Full load outlet temperature indicates a possibility of frost/freeze error continues. Outlet air temperature statistics follow:\n   *************  **   ~~~   **   This error occurred 246 total times;\n   *************  **   ~~~   **   during Warmup 0 times;\n   *************  **   ~~~   **   during Sizing 0 times.\n   *************  **   ~~~   **   Max=1.991876  Min=-3.46058\n   *************\n   *************  ** Warning ** CalcDoe2DXCoil: Coil:Cooling:DX:SingleSpeed=\"COIL COOLING DX SINGLE SPEED 5 33KBTU/HR 14.0SEER\" - Full load outlet temperature indicates a possibility of frost/freeze error continues. Outlet air temperature statistics follow:\n   *************  **   ~~~   **   This error occurred 245 total times;\n   *************  **   ~~~   **   during Warmup 0 times;\n   *************  **   ~~~   **   during Sizing 0 times.\n   *************  **   ~~~   **   Max=1.994491  Min=-3.464199\n   *************\n   *************  ** Warning ** CalcDoe2DXCoil: Coil:Cooling:DX:SingleSpeed=\"COIL COOLING DX SINGLE SPEED 4 33KBTU/HR 14.0SEER\" - Full load outlet temperature indicates a possibility of frost/freeze error continues. Outlet air temperature statistics follow:\n   *************  **   ~~~   **   This error occurred 225 total times;\n   *************  **   ~~~   **   during Warmup 0 times;\n   *************  **   ~~~   **   during Sizing 0 times.\n   *************  **   ~~~   **   Max=1.994533  Min=-3.490667\n   *************\n   *************  ** Warning ** CalcDoe2DXCoil: Coil:Cooling:DX:SingleSpeed=\"COIL COOLING DX SINGLE SPEED 3 34KBTU/HR 14.0SEER\" - Full load outlet temperature indicates a possibility of frost/freeze error continues. Outlet air temperature statistics follow:\n   *************  **   ~~~   **   This error occurred 245 total times;\n   *************  **   ~~~   **   during Warmup 0 times;\n   *************  **   ~~~   **   during Sizing 0 times.\n   *************  **   ~~~   **   Max=1.986681  Min=-3.269276\n   *************\n   *************  ** Warning ** CalcDoe2DXCoil: Coil:Cooling:DX:SingleSpeed=\"COIL COOLING DX SINGLE SPEED 8 34KBTU/HR 14.0SEER\" - Full load outlet temperature indicates a possibility of frost/freeze error continues. Outlet air temperature statistics follow:\n   *************  **   ~~~   **   This error occurred 254 total times;\n   *************  **   ~~~   **   during Warmup 0 times;\n   *************  **   ~~~   **   during Sizing 0 times.\n   *************  **   ~~~   **   Max=1.996245  Min=-3.304393\n   *************\n   *************  ** Warning ** CalcDoe2DXCoil: Coil:Cooling:DX:SingleSpeed=\"COIL COOLING DX SINGLE SPEED 7 34KBTU/HR 14.0SEER\" - Full load outlet temperature indicates a possibility of frost/freeze error continues. Outlet air temperature statistics follow:\n   *************  **   ~~~   **   This error occurred 253 total times;\n   *************  **   ~~~   **   during Warmup 0 times;\n   *************  **   ~~~   **   during Sizing 0 times.\n   *************  **   ~~~   **   Max=1.996504  Min=-3.303912\n   *************\n   *************  ** Warning ** CalcDoe2DXCoil: Coil:Cooling:DX:SingleSpeed=\"COIL COOLING DX SINGLE SPEED 10 66KBTU/HR 9.7EER\" - Full load outlet temperature indicates a possibility of frost/freeze error continues. Outlet air temperature statistics follow:\n   *************  **   ~~~   **   This error occurred 192 total times;\n   *************  **   ~~~   **   during Warmup 0 times;\n   *************  **   ~~~   **   during Sizing 0 times.\n   *************  **   ~~~   **   Max=1.955605  Min=-3.741202\n   *************\n   *************  ** Warning ** CalcDoe2DXCoil: Coil:Cooling:DX:SingleSpeed=\"COIL COOLING DX SINGLE SPEED 9 34KBTU/HR 14.0SEER\" - Full load outlet temperature indicates a possibility of frost/freeze error continues. Outlet air temperature statistics follow:\n   *************  **   ~~~   **   This error occurred 116 total times;\n   *************  **   ~~~   **   during Warmup 0 times;\n   *************  **   ~~~   **   during Sizing 0 times.\n   *************  **   ~~~   **   Max=1.902342  Min=-2.517493\n   *************\n   *************\n   ************* ===== Final Error Summary =====\n   ************* The following error categories occurred.  Consider correcting or noting.\n   ************* Nominally Unused Constructions\n   ************* ..The nominally unused constructions warning is provided to alert you to potential conditions that can cause\n   ************* ..extra time during simulation. Each construction is calculated by the algorithm indicated in the HeatBalanceAlgorithm\n   ************* ..object. You may remove the constructions indicated (when you use the DisplayExtraWarnings option).\n   *************\n   ************* EnergyPlus Warmup Error Summary. During Warmup: 0 Warning; 0 Severe Errors.\n   ************* EnergyPlus Sizing Error Summary. During Sizing: 87 Warning; 0 Severe Errors.\n   ************* EnergyPlus Completed Successfully-- 3895 Warning; 0 Severe Errors; Elapsed Time=00hr 01min  4.52sec\n",
   "file_format_version" : "0.0.1",
   "file_paths" : [ "../weather", "../seeds", "../seed" ],
   "hash" : "BA662BC6",
   "measure_paths" : [ "../measures" ],
   "name" : "LHS Autogenerated 565",
   "osa_id" : "4fef0e0f-5396-4c55-a6e1-2cd6803db3ab",
   "osd_id" : "fa922e1d-1d47-41fe-8536-94ef9337548c",
   "run_directory" : "./run",
   "seed_file" : "seed.osm",
   "started_at" : "20170710T185856Z",
   "steps" : [
      {
         "arguments" : {
            "__SKIP__" : false,
            "building_type" : "RetailStripmall",
            "climate_zone" : "NECB HDD Method",
            "epw_file" : "CAN_PE_Charlottetown.717060_CWEC.epw",
            "template" : "NECB 2011"
         },
         "measure_dir_name" : "create_prototype_building",
         "name" : "create_prototype_building",
         "result" : {
            "completed_at" : "20170710T190005Z",
            "measure_class_name" : "CreatePrototypeBuilding",
            "measure_display_name" : "Create Prototype Building",
            "measure_name" : "create_prototype_building",
            "measure_taxonomy" : "Whole Building.Space Types",
            "measure_type" : "ModelMeasure",
            "measure_uid" : "ae90fsd7-a651-467a-bc8d-29d310b0f937",
            "measure_version_id" : "c6ec5c18-5595-459f-a082-09a19c8c869c",
            "measure_version_modified" : "20170519T182315Z",
            "measure_xml_checksum" : "057E8D9D",
            "started_at" : "20170710T185858Z",
            "stderr" : "",
            "stdout" : "[OpenStudio.Measure] <0> OSArgumentVector is deprecated, use OpenStudio::Measure::OSArgumentVector instead.\n[openstudio.EpwFile] <0> Successive data points (1972-Jan-31 to 1977-Feb-01, ending on line 753) are greater than 1 day apart in EPW file '/usr/local/bundle/bundler/gems/openstudio-standards-f448df66933d/openstudio-standards/data/weather/CAN_PE_Charlottetown.717060_CWEC.epw'. Data will be treated as typical (TMY)\n[openstudio.setFileExtension] <0> Path p, '/usr/local/bundle/bundler/gems/openstudio-standards-f448df66933d/openstudio-standards/data/weather/CAN_PE_Charlottetown.717060_CWEC.ddy', has an unexpected file extension. Was expecting 'idf'.\n[openstudio.model.YearDescription] <1> 'UseWeatherFile' is not yet a supported option for YearDescription\n[openstudio.model.YearDescription] <1> 'UseWeatherFile' is not yet a supported option for YearDescription\n[openstudio.setFileExtension] <0> Path p, '/usr/local/bundle/bundler/gems/openstudio-standards-f448df66933d/openstudio-standards/data/weather/CAN_PE_Charlottetown.717060_CWEC.ddy', has an unexpected file extension. Was expecting 'idf'.\n[openstudio.model.YearDescription] <1> 'UseWeatherFile' is not yet a supported option for YearDescription\n[openstudio.model.YearDescription] <1> 'UseWeatherFile' is not yet a supported option for YearDescription\n[openstudio.EpwFile] <0> Successive data points (1972-Jan-31 to 1977-Feb-01, ending on line 753) are greater than 1 day apart in EPW file '/usr/local/bundle/bundler/gems/openstudio-standards-f448df66933d/openstudio-standards/data/weather/CAN_PE_Charlottetown.717060_CWEC.epw'. Data will be treated as typical (TMY)\n[openstudio.weather.Model] <0> Could not find ground temperatures; will use generic temperatures, which will skew results.\n[openstudio.setFileExtension] <0> Path p, '/usr/local/bundle/bundler/gems/openstudio-standards-f448df66933d/openstudio-standards/data/weather/CAN_PE_Charlottetown.717060_CWEC.ddy', has an unexpected file extension. Was expecting 'idf'.\n[openstudio.model.YearDescription] <1> 'UseWeatherFile' is not yet a supported option for YearDescription\n[openstudio.model.YearDescription] <1> 'UseWeatherFile' is not yet a supported option for YearDescription\n[openstudio.EpwFile] <0> Successive data points (1972-Jan-31 to 1977-Feb-01, ending on line 753) are greater than 1 day apart in EPW file '/usr/local/bundle/bundler/gems/openstudio-standards-f448df66933d/openstudio-standards/data/weather/CAN_PE_Charlottetown.717060_CWEC.epw'. Data will be treated as typical (TMY)\n[openstudio.setFileExtension] <0> Path p, '/usr/local/bundle/bundler/gems/openstudio-standards-f448df66933d/openstudio-standards/data/weather/CAN_PE_Charlottetown.717060_CWEC.ddy', has an unexpected file extension. Was expecting 'idf'.\n[openstudio.model.YearDescription] <1> 'UseWeatherFile' is not yet a supported option for YearDescription\n[openstudio.model.YearDescription] <1> 'UseWeatherFile' is not yet a supported option for YearDescription\n[openstudio.setFileExtension] <0> Path p, '/usr/local/bundle/bundler/gems/openstudio-standards-f448df66933d/openstudio-standards/data/weather/CAN_PE_Charlottetown.717060_CWEC.ddy', has an unexpected file extension. Was expecting 'idf'.\n[openstudio.model.YearDescription] <1> 'UseWeatherFile' is not yet a supported option for YearDescription\n[openstudio.model.YearDescription] <1> 'UseWeatherFile' is not yet a supported option for YearDescription\n[openstudio.EpwFile] <0> Successive data points (1972-Jan-31 to 1977-Feb-01, ending on line 753) are greater than 1 day apart in EPW file '/usr/local/bundle/bundler/gems/openstudio-standards-f448df66933d/openstudio-standards/data/weather/CAN_PE_Charlottetown.717060_CWEC.epw'. Data will be treated as typical (TMY)\n[openstudio.setFileExtension] <0> Path p, '/usr/local/bundle/bundler/gems/openstudio-standards-f448df66933d/openstudio-standards/data/weather/CAN_PE_Charlottetown.717060_CWEC.ddy', has an unexpected file extension. Was expecting 'idf'.\n[openstudio.model.YearDescription] <1> 'UseWeatherFile' is not yet a supported option for YearDescription\n[openstudio.model.YearDescription] <1> 'UseWeatherFile' is not yet a supported option for YearDescription\n[openstudio.setFileExtension] <0> Path p, '/usr/local/bundle/bundler/gems/openstudio-standards-f448df66933d/openstudio-standards/data/weather/CAN_PE_Charlottetown.717060_CWEC.ddy', has an unexpected file extension. Was expecting 'idf'.\n[openstudio.model.YearDescription] <1> 'UseWeatherFile' is not yet a supported option for YearDescription\n[openstudio.model.YearDescription] <1> 'UseWeatherFile' is not yet a supported option for YearDescription\n[utilities.idf.WorkspaceObject] <0> Object of type 'Schedule:Constant' and named 'Always Off Discrete', points to an object named OnOff 1 from field 1, but that object cannot be located.\n[utilities.idf.WorkspaceObject] <0> Object of type 'Schedule:Constant' and named 'Always On Continuous', points to an object named Fractional 1 from field 1, but that object cannot be located.\n[utilities.idf.WorkspaceObject] <0> Object of type 'Schedule:Constant' and named 'Always Off Discrete', points to an object named OnOff 1 from field 1, but that object cannot be located.\n[utilities.idf.WorkspaceObject] <0> Object of type 'Schedule:Constant' and named 'Always On Continuous', points to an object named Fractional 1 from field 1, but that object cannot be located.\n[openstudio.standards.Fan] <0> For Fan Constant Volume 1, there is no greater nominal HP.  Use the efficiency of the largest motor category.\n[openstudio.standards.Fan] <0> For Fan Constant Volume 10, there is no greater nominal HP.  Use the efficiency of the largest motor category.\n[openstudio.standards.Fan] <0> For Fan Constant Volume 2, there is no greater nominal HP.  Use the efficiency of the largest motor category.\n[openstudio.standards.Fan] <0> For Fan Constant Volume 3, there is no greater nominal HP.  Use the efficiency of the largest motor category.\n[openstudio.standards.Fan] <0> For Fan Constant Volume 4, there is no greater nominal HP.  Use the efficiency of the largest motor category.\n[openstudio.standards.Fan] <0> For Fan Constant Volume 5, there is no greater nominal HP.  Use the efficiency of the largest motor category.\n[openstudio.standards.Fan] <0> For Fan Constant Volume 6, there is no greater nominal HP.  Use the efficiency of the largest motor category.\n[openstudio.standards.Fan] <0> For Fan Constant Volume 7, there is no greater nominal HP.  Use the efficiency of the largest motor category.\n[openstudio.standards.Fan] <0> For Fan Constant Volume 8, there is no greater nominal HP.  Use the efficiency of the largest motor category.\n[openstudio.standards.Fan] <0> For Fan Constant Volume 9, there is no greater nominal HP.  Use the efficiency of the largest motor category.\n[openstudio.EpwFile] <0> Successive data points (1972-Jan-31 to 1977-Feb-01, ending on line 753) are greater than 1 day apart in EPW file '/usr/local/bundle/bundler/gems/openstudio-standards-f448df66933d/openstudio-standards/data/weather/CAN_PE_Charlottetown.717060_CWEC.epw'. Data will be treated as typical (TMY)\n[openstudio.setFileExtension] <0> Path p, '/usr/local/bundle/bundler/gems/openstudio-standards-f448df66933d/openstudio-standards/data/weather/CAN_PE_Charlottetown.717060_CWEC.ddy', has an unexpected file extension. Was expecting 'idf'.\n[openstudio.model.YearDescription] <1> 'UseWeatherFile' is not yet a supported option for YearDescription\n[openstudio.model.YearDescription] <1> 'UseWeatherFile' is not yet a supported option for YearDescription\n[openstudio.setFileExtension] <0> Path p, '/usr/local/bundle/bundler/gems/openstudio-standards-f448df66933d/openstudio-standards/data/weather/CAN_PE_Charlottetown.717060_CWEC.ddy', has an unexpected file extension. Was expecting 'idf'.\n[openstudio.model.YearDescription] <1> 'UseWeatherFile' is not yet a supported option for YearDescription\n[openstudio.model.YearDescription] <1> 'UseWeatherFile' is not yet a supported option for YearDescription\n[openstudio.EpwFile] <0> Successive data points (1972-Jan-31 to 1977-Feb-01, ending on line 753) are greater than 1 day apart in EPW file '/usr/local/bundle/bundler/gems/openstudio-standards-f448df66933d/openstudio-standards/data/weather/CAN_PE_Charlottetown.717060_CWEC.epw'. Data will be treated as typical (TMY)\n[openstudio.setFileExtension] <0> Path p, '/usr/local/bundle/bundler/gems/openstudio-standards-f448df66933d/openstudio-standards/data/weather/CAN_PE_Charlottetown.717060_CWEC.ddy', has an unexpected file extension. Was expecting 'idf'.\n[openstudio.model.YearDescription] <1> 'UseWeatherFile' is not yet a supported option for YearDescription\n[openstudio.model.YearDescription] <1> 'UseWeatherFile' is not yet a supported option for YearDescription\n[openstudio.setFileExtension] <0> Path p, '/usr/local/bundle/bundler/gems/openstudio-standards-f448df66933d/openstudio-standards/data/weather/CAN_PE_Charlottetown.717060_CWEC.ddy', has an unexpected file extension. Was expecting 'idf'.\n[openstudio.model.YearDescription] <1> 'UseWeatherFile' is not yet a supported option for YearDescription\n[openstudio.model.YearDescription] <1> 'UseWeatherFile' is not yet a supported option for YearDescription\n[openstudio.EpwFile] <0> Successive data points (1972-Jan-31 to 1977-Feb-01, ending on line 753) are greater than 1 day apart in EPW file '/usr/local/bundle/bundler/gems/openstudio-standards-f448df66933d/openstudio-standards/data/weather/CAN_PE_Charlottetown.717060_CWEC.epw'. Data will be treated as typical (TMY)\n[openstudio.setFileExtension] <0> Path p, '/usr/local/bundle/bundler/gems/openstudio-standards-f448df66933d/openstudio-standards/data/weather/CAN_PE_Charlottetown.717060_CWEC.ddy', has an unexpected file extension. Was expecting 'idf'.\n[openstudio.model.YearDescription] <1> 'UseWeatherFile' is not yet a supported option for YearDescription\n[openstudio.model.YearDescription] <1> 'UseWeatherFile' is not yet a supported option for YearDescription\n[openstudio.setFileExtension] <0> Path p, '/usr/local/bundle/bundler/gems/openstudio-standards-f448df66933d/openstudio-standards/data/weather/CAN_PE_Charlottetown.717060_CWEC.ddy', has an unexpected file extension. Was expecting 'idf'.\n[openstudio.model.YearDescription] <1> 'UseWeatherFile' is not yet a supported option for YearDescription\n[openstudio.model.YearDescription] <1> 'UseWeatherFile' is not yet a supported option for YearDescription\n[openstudio.EpwFile] <0> Successive data points (1972-Jan-31 to 1977-Feb-01, ending on line 753) are greater than 1 day apart in EPW file '/usr/local/bundle/bundler/gems/openstudio-standards-f448df66933d/openstudio-standards/data/weather/CAN_PE_Charlottetown.717060_CWEC.epw'. Data will be treated as typical (TMY)\n[openstudio.setFileExtension] <0> Path p, '/usr/local/bundle/bundler/gems/openstudio-standards-f448df66933d/openstudio-standards/data/weather/CAN_PE_Charlottetown.717060_CWEC.ddy', has an unexpected file extension. Was expecting 'idf'.\n[openstudio.model.YearDescription] <1> 'UseWeatherFile' is not yet a supported option for YearDescription\n[openstudio.model.YearDescription] <1> 'UseWeatherFile' is not yet a supported option for YearDescription\n[openstudio.setFileExtension] <0> Path p, '/usr/local/bundle/bundler/gems/openstudio-standards-f448df66933d/openstudio-standards/data/weather/CAN_PE_Charlottetown.717060_CWEC.ddy', has an unexpected file extension. Was expecting 'idf'.\n[openstudio.model.YearDescription] <1> 'UseWeatherFile' is not yet a supported option for YearDescription\n[openstudio.model.YearDescription] <1> 'UseWeatherFile' is not yet a supported option for YearDescription\n[openstudio.EpwFile] <0> Successive data points (1972-Jan-31 to 1977-Feb-01, ending on line 753) are greater than 1 day apart in EPW file '/usr/local/bundle/bundler/gems/openstudio-standards-f448df66933d/openstudio-standards/data/weather/CAN_PE_Charlottetown.717060_CWEC.epw'. Data will be treated as typical (TMY)\n[openstudio.setFileExtension] <0> Path p, '/usr/local/bundle/bundler/gems/openstudio-standards-f448df66933d/openstudio-standards/data/weather/CAN_PE_Charlottetown.717060_CWEC.ddy', has an unexpected file extension. Was expecting 'idf'.\n[openstudio.model.YearDescription] <1> 'UseWeatherFile' is not yet a supported option for YearDescription\n[openstudio.model.YearDescription] <1> 'UseWeatherFile' is not yet a supported option for YearDescription\n[openstudio.setFileExtension] <0> Path p, '/usr/local/bundle/bundler/gems/openstudio-standards-f448df66933d/openstudio-standards/data/weather/CAN_PE_Charlottetown.717060_CWEC.ddy', has an unexpected file extension. Was expecting 'idf'.\n[openstudio.model.YearDescription] <1> 'UseWeatherFile' is not yet a supported option for YearDescription\n[openstudio.model.YearDescription] <1> 'UseWeatherFile' is not yet a supported option for YearDescription\n[openstudio.EpwFile] <0> Successive data points (1972-Jan-31 to 1977-Feb-01, ending on line 753) are greater than 1 day apart in EPW file '/usr/local/bundle/bundler/gems/openstudio-standards-f448df66933d/openstudio-standards/data/weather/CAN_PE_Charlottetown.717060_CWEC.epw'. Data will be treated as typical (TMY)\n[openstudio.setFileExtension] <0> Path p, '/usr/local/bundle/bundler/gems/openstudio-standards-f448df66933d/openstudio-standards/data/weather/CAN_PE_Charlottetown.717060_CWEC.ddy', has an unexpected file extension. Was expecting 'idf'.\n[openstudio.model.YearDescription] <1> 'UseWeatherFile' is not yet a supported option for YearDescription\n[openstudio.model.YearDescription] <1> 'UseWeatherFile' is not yet a supported option for YearDescription\n[openstudio.setFileExtension] <0> Path p, '/usr/local/bundle/bundler/gems/openstudio-standards-f448df66933d/openstudio-standards/data/weather/CAN_PE_Charlottetown.717060_CWEC.ddy', has an unexpected file extension. Was expecting 'idf'.\n[openstudio.model.YearDescription] <1> 'UseWeatherFile' is not yet a supported option for YearDescription\n[openstudio.model.YearDescription] <1> 'UseWeatherFile' is not yet a supported option for YearDescription\n[openstudio.EpwFile] <0> Successive data points (1972-Jan-31 to 1977-Feb-01, ending on line 753) are greater than 1 day apart in EPW file '/usr/local/bundle/bundler/gems/openstudio-standards-f448df66933d/openstudio-standards/data/weather/CAN_PE_Charlottetown.717060_CWEC.epw'. Data will be treated as typical (TMY)\n[openstudio.setFileExtension] <0> Path p, '/usr/local/bundle/bundler/gems/openstudio-standards-f448df66933d/openstudio-standards/data/weather/CAN_PE_Charlottetown.717060_CWEC.ddy', has an unexpected file extension. Was expecting 'idf'.\n[openstudio.model.YearDescription] <1> 'UseWeatherFile' is not yet a supported option for YearDescription\n[openstudio.model.YearDescription] <1> 'UseWeatherFile' is not yet a supported option for YearDescription\n[openstudio.setFileExtension] <0> Path p, '/usr/local/bundle/bundler/gems/openstudio-standards-f448df66933d/openstudio-standards/data/weather/CAN_PE_Charlottetown.717060_CWEC.ddy', has an unexpected file extension. Was expecting 'idf'.\n[openstudio.model.YearDescription] <1> 'UseWeatherFile' is not yet a supported option for YearDescription\n[openstudio.model.YearDescription] <1> 'UseWeatherFile' is not yet a supported option for YearDescription\n[openstudio.EpwFile] <0> Successive data points (1972-Jan-31 to 1977-Feb-01, ending on line 753) are greater than 1 day apart in EPW file '/usr/local/bundle/bundler/gems/openstudio-standards-f448df66933d/openstudio-standards/data/weather/CAN_PE_Charlottetown.717060_CWEC.epw'. Data will be treated as typical (TMY)\n[openstudio.setFileExtension] <0> Path p, '/usr/local/bundle/bundler/gems/openstudio-standards-f448df66933d/openstudio-standards/data/weather/CAN_PE_Charlottetown.717060_CWEC.ddy', has an unexpected file extension. Was expecting 'idf'.\n[openstudio.model.YearDescription] <1> 'UseWeatherFile' is not yet a supported option for YearDescription\n[openstudio.model.YearDescription] <1> 'UseWeatherFile' is not yet a supported option for YearDescription\n[openstudio.setFileExtension] <0> Path p, '/usr/local/bundle/bundler/gems/openstudio-standards-f448df66933d/openstudio-standards/data/weather/CAN_PE_Charlottetown.717060_CWEC.ddy', has an unexpected file extension. Was expecting 'idf'.\n[openstudio.model.YearDescription] <1> 'UseWeatherFile' is not yet a supported option for YearDescription\n[openstudio.model.YearDescription] <1> 'UseWeatherFile' is not yet a supported option for YearDescription\n[openstudio.EpwFile] <0> Successive data points (1972-Jan-31 to 1977-Feb-01, ending on line 753) are greater than 1 day apart in EPW file '/usr/local/bundle/bundler/gems/openstudio-standards-f448df66933d/openstudio-standards/data/weather/CAN_PE_Charlottetown.717060_CWEC.epw'. Data will be treated as typical (TMY)\n[openstudio.setFileExtension] <0> Path p, '/usr/local/bundle/bundler/gems/openstudio-standards-f448df66933d/openstudio-standards/data/weather/CAN_PE_Charlottetown.717060_CWEC.ddy', has an unexpected file extension. Was expecting 'idf'.\n[openstudio.model.YearDescription] <1> 'UseWeatherFile' is not yet a supported option for YearDescription\n[openstudio.model.YearDescription] <1> 'UseWeatherFile' is not yet a supported option for YearDescription\n[openstudio.setFileExtension] <0> Path p, '/usr/local/bundle/bundler/gems/openstudio-standards-f448df66933d/openstudio-standards/data/weather/CAN_PE_Charlottetown.717060_CWEC.ddy', has an unexpected file extension. Was expecting 'idf'.\n[openstudio.model.YearDescription] <1> 'UseWeatherFile' is not yet a supported option for YearDescription\n[openstudio.model.YearDescription] <1> 'UseWeatherFile' is not yet a supported option for YearDescription\n[openstudio.EpwFile] <0> Successive data points (1972-Jan-31 to 1977-Feb-01, ending on line 753) are greater than 1 day apart in EPW file '/usr/local/bundle/bundler/gems/openstudio-standards-f448df66933d/openstudio-standards/data/weather/CAN_PE_Charlottetown.717060_CWEC.epw'. Data will be treated as typical (TMY)\n[openstudio.setFileExtension] <0> Path p, '/usr/local/bundle/bundler/gems/openstudio-standards-f448df66933d/openstudio-standards/data/weather/CAN_PE_Charlottetown.717060_CWEC.ddy', has an unexpected file extension. Was expecting 'idf'.\n[openstudio.model.YearDescription] <1> 'UseWeatherFile' is not yet a supported option for YearDescription\n[openstudio.model.YearDescription] <1> 'UseWeatherFile' is not yet a supported option for YearDescription\n[openstudio.setFileExtension] <0> Path p, '/usr/local/bundle/bundler/gems/openstudio-standards-f448df66933d/openstudio-standards/data/weather/CAN_PE_Charlottetown.717060_CWEC.ddy', has an unexpected file extension. Was expecting 'idf'.\n[openstudio.model.YearDescription] <1> 'UseWeatherFile' is not yet a supported option for YearDescription\n[openstudio.model.YearDescription] <1> 'UseWeatherFile' is not yet a supported option for YearDescription\n[openstudio.standards.Fan] <0> For Fan Constant Volume 1, there is no greater nominal HP.  Use the efficiency of the largest motor category.\n[openstudio.standards.Fan] <0> For Fan Constant Volume 10, there is no greater nominal HP.  Use the efficiency of the largest motor category.\n[openstudio.standards.Fan] <0> For Fan Constant Volume 2, there is no greater nominal HP.  Use the efficiency of the largest motor category.\n[openstudio.standards.Fan] <0> For Fan Constant Volume 3, there is no greater nominal HP.  Use the efficiency of the largest motor category.\n[openstudio.standards.Fan] <0> For Fan Constant Volume 4, there is no greater nominal HP.  Use the efficiency of the largest motor category.\n[openstudio.standards.Fan] <0> For Fan Constant Volume 5, there is no greater nominal HP.  Use the efficiency of the largest motor category.\n[openstudio.standards.Fan] <0> For Fan Constant Volume 6, there is no greater nominal HP.  Use the efficiency of the largest motor category.\n[openstudio.standards.Fan] <0> For Fan Constant Volume 7, there is no greater nominal HP.  Use the efficiency of the largest motor category.\n[openstudio.standards.Fan] <0> For Fan Constant Volume 8, there is no greater nominal HP.  Use the efficiency of the largest motor category.\n[openstudio.standards.Fan] <0> For Fan Constant Volume 9, there is no greater nominal HP.  Use the efficiency of the largest motor category.\n",
            "step_errors" : [],
            "step_files" : [],
            "step_info" : [
               "Started adding geometry",
               "Finished adding geometry",
               "Started adding weather file for climate zone: NECB HDD Method.",
               "Template =",
               "Setting LGstore1 to Space Function.Retail - sales",
               "Setting LGstore2 to Space Function.Retail - sales",
               "Setting SMstore1 to Space Function.Retail - sales",
               "Setting SMstore2 to Space Function.Retail - sales",
               "Setting SMstore3 to Space Function.Retail - sales",
               "Setting SMstore4 to Space Function.Retail - sales",
               "Setting SMstore5 to Space Function.Retail - sales",
               "Setting SMstore6 to Space Function.Retail - sales",
               "Setting SMstore7 to Space Function.Retail - sales",
               "Setting SMstore8 to Space Function.Retail - sales",
               "Started applying space types (loads)",
               "Space Function Retail - sales had no people, one has been created.",
               "Space Function Retail - sales set occupancy to 3.1 people/1000 ft^2.",
               "Space Function Retail - sales had no lights, one has been created.",
               "Space Function Retail - sales set LPD to 1.681531029 W/ft^2.",
               "Space Function Retail - sales had no electric equipment, one has been created.",
               "Space Function Retail - sales set electric EPD to 0.232255667 W/ft^2.",
               "Space Function Retail - sales had no ventilation specification, one has been created.",
               "Space Function Retail - sales set ventilation per area to 0.233 cfm/ft^2.",
               "Space Function Retail - sales had no infiltration objects, one has been created.",
               "Space Function Retail - sales set infiltration to 0.0 per ft^2 exterior surface area.",
               "Space Function Retail - sales set occupancy schedule to NECB-C-Occupancy.",
               "Space Function Retail - sales set occupant activity schedule to NECB-Activity.",
               "Space Function Retail - sales set lighting schedule to NECB-C-Lighting.",
               "Space Function Retail - sales set electric equipment schedule to NECB-C-Electric-Equipment.",
               "Space Function Retail - sales set infiltration schedule to Always On.",
               "Space Function Retail - sales set heating setpoint schedule to NECB-C-Thermostat Setpoint-Heating.",
               "Space Function Retail - sales set cooling setpoint schedule to NECB-C-Thermostat Setpoint-Cooling.",
               "Finished applying space types (loads)",
               "Started applying constructions",
               "Adding construction set: NECB 2011-NECB HDD Method-StripMall--is_residentialNo",
               "Adding construction Typical Insulated Exterior Mass Floor R-15.63.",
               "Adding construction Typical Insulated Exterior Mass Wall R-12.5.",
               "Adding construction Typical Insulated Metal Building Roof R-20.41.",
               "Adding construction Typical Interior Floor.",
               "Adding construction Typical Interior Wall.",
               "Adding construction Typical Interior Ceiling.",
               "Adding construction Typical Insulated Carpeted 6in Slab Floor.",
               "Adding construction U 0.55 SHGC 0.31 Dbl Ref-D Tint 6mm/6mm Air.",
               "Adding construction Typical Insulated Metal Door R-1.43.",
               "Adding construction U 0.35 SHGC 0.35 Dbl LoE (e2-.1) Tint 6mm/13mm Air.",
               "Adding construction Typical Overhead Door R-2.0.",
               "Adding construction U 0.48 SHGC 0.40 Dbl Ref-D Clr 6mm/13mm.",
               "Adding construction Typical Interior Window.",
               "Adding construction Typical Interior Door.",
               "Adding construction Typical Interior Partition.",
               "Finished applying constructions",
               "WWR NonRes = 0%; window = 0 ft2, wall = 0 ft2.",
               "WWR Res = 0%; window = 0 ft2, wall = 0 ft2.",
               "WWR Semiheated = 0%; window = 0 ft2, wall = 0 ft2.",
               "The skylight to roof ratios (SRRs) are: NonRes: 0%, Res: 0%.",
               "Started creating thermal zones",
               "Finished creating thermal zones",
               "Running simulation /mnt/openstudio/analysis_4fef0e0f-5396-4c55-a6e1-2cd6803db3ab/data_point_fa922e1d-1d47-41fe-8536-94ef9337548c/run/000_create_prototype_building/output/RetailStripmall-NECB 2011-NECB HDD Method-CAN_PE_Charlottetown.717060_CWEC.epw/SR0.",
               "Finished run.",
               "Started Adding HVAC",
               "Finished adding HVAC",
               "Started Adding Service Water Heating",
               "Adding service water loop.",
               "Adding water heater.",
               "Template =",
               "Finished adding Service Water Heating",
               "Set sizing factors to 1.3 for heating and 1.3 for cooling.",
               "Running simulation /mnt/openstudio/analysis_4fef0e0f-5396-4c55-a6e1-2cd6803db3ab/data_point_fa922e1d-1d47-41fe-8536-94ef9337548c/run/000_create_prototype_building/output/RetailStripmall-NECB 2011-NECB HDD Method-CAN_PE_Charlottetown.717060_CWEC.epw/SR1.",
               "Finished run.",
               "Started applying multizone vav OA sizing.",
               "Finished applying multizone vav OA sizing.",
               "Started applying prototype HVAC assumptions.",
               "For Fan Constant Volume 1: allowed_hp = 1.41HP; motor eff = 61.5%; total fan eff = 40% based on 2067 cfm.",
               "For Fan Constant Volume 10: allowed_hp = 1.44HP; motor eff = 61.5%; total fan eff = 40% based on 2100 cfm.",
               "For Fan Constant Volume 2: allowed_hp = 1.01HP; motor eff = 61.5%; total fan eff = 40% based on 1066 cfm.",
               "For Fan Constant Volume 3: allowed_hp = 1.01HP; motor eff = 61.5%; total fan eff = 40% based on 1088 cfm.",
               "For Fan Constant Volume 4: allowed_hp = 1.01HP; motor eff = 61.5%; total fan eff = 40% based on 1067 cfm.",
               "For Fan Constant Volume 5: allowed_hp = 1.01HP; motor eff = 61.5%; total fan eff = 40% based on 1066 cfm.",
               "For Fan Constant Volume 6: allowed_hp = 1.01HP; motor eff = 61.5%; total fan eff = 40% based on 1065 cfm.",
               "For Fan Constant Volume 7: allowed_hp = 1.01HP; motor eff = 61.5%; total fan eff = 40% based on 1085 cfm.",
               "For Fan Constant Volume 8: allowed_hp = 1.01HP; motor eff = 61.5%; total fan eff = 40% based on 1084 cfm.",
               "For Fan Constant Volume 9: allowed_hp = 1.01HP; motor eff = 61.5%; total fan eff = 40% based on 1099 cfm.",
               "Sp-LGstore1 Sys-3 Flr-1 Sch-C HPlcmt-west ZN NECB System 3 PSZ does not require an economizer because the total cooling capacity of 65885 Btu/hr is less than the minimum capacity of 68243 Btu/hr.",
               "Sp-SMstore4 Sys-3 Flr-1 Sch-C HPlcmt-north ZN NECB System 3 PSZ does not require an economizer because the total cooling capacity of 33670 Btu/hr is less than the minimum capacity of 68243 Btu/hr.",
               "Sp-SMstore5 Sys-3 Flr-1 Sch-C HPlcmt-north ZN NECB System 3 PSZ does not require an economizer because the total cooling capacity of 33671 Btu/hr is less than the minimum capacity of 68243 Btu/hr.",
               "Sp-SMstore2 Sys-3 Flr-1 Sch-C HPlcmt-north ZN NECB System 3 PSZ does not require an economizer because the total cooling capacity of 33236 Btu/hr is less than the minimum capacity of 68243 Btu/hr.",
               "Sp-SMstore6 Sys-3 Flr-1 Sch-C HPlcmt-north ZN NECB System 3 PSZ does not require an economizer because the total cooling capacity of 33234 Btu/hr is less than the minimum capacity of 68243 Btu/hr.",
               "Sp-SMstore8 Sys-3 Flr-1 Sch-C HPlcmt-east ZN NECB System 3 PSZ does not require an economizer because the total cooling capacity of 34294 Btu/hr is less than the minimum capacity of 68243 Btu/hr.",
               "Sp-LGstore2 Sys-3 Flr-1 Sch-C HPlcmt-north ZN NECB System 3 PSZ does not require an economizer because the total cooling capacity of 64823 Btu/hr is less than the minimum capacity of 68243 Btu/hr.",
               "Sp-SMstore3 Sys-3 Flr-1 Sch-C HPlcmt-north ZN NECB System 3 PSZ does not require an economizer because the total cooling capacity of 33228 Btu/hr is less than the minimum capacity of 68243 Btu/hr.",
               "Sp-SMstore1 Sys-3 Flr-1 Sch-C HPlcmt-north ZN NECB System 3 PSZ does not require an economizer because the total cooling capacity of 33744 Btu/hr is less than the minimum capacity of 68243 Btu/hr.",
               "Sp-SMstore7 Sys-3 Flr-1 Sch-C HPlcmt-north ZN NECB System 3 PSZ does not require an economizer because the total cooling capacity of 33274 Btu/hr is less than the minimum capacity of 68243 Btu/hr.",
               "Finished applying prototype HVAC assumptions.",
               "Started applying HVAC efficiency standards.",
               "For Sp-LGstore1 Sys-3 Flr-1 Sch-C HPlcmt-west ZN NECB System 3 PSZ, ERV not required based on 0% OA flow, design supply air flow of 2100cfm, and climate zone NECB HDD Method.",
               "For Sp-LGstore1 Sys-3 Flr-1 Sch-C HPlcmt-west ZN NECB System 3 PSZ, ERV not required based on exhaust heat content.",
               "For NECB 2011 NECB HDD Method:  Sp-LGstore1 Sys-3 Flr-1 Sch-C HPlcmt-west ZN NECB System 3 PSZ: DCV is not required for any system.",
               "For Sp-LGstore1 Sys-3 Flr-1 Sch-C HPlcmt-west ZN NECB System 3 PSZ: Annual occupied hours = 4168 hr/yr, assuming a 0.15 occupancy threshold.  This schedule will be used as the HVAC operation schedule.",
               "For Sp-LGstore1 Sys-3 Flr-1 Sch-C HPlcmt-west ZN NECB System 3 PSZ: Setting motorized OA damper schedule to Sp-LGstore1 Sys-3 Flr-1 Sch-C HPlcmt-west ZN NECB System 3 PSZ Occ Sch.",
               "For Sp-LGstore2 Sys-3 Flr-1 Sch-C HPlcmt-north ZN NECB System 3 PSZ, ERV not required based on 0% OA flow, design supply air flow of 2067cfm, and climate zone NECB HDD Method.",
               "For Sp-LGstore2 Sys-3 Flr-1 Sch-C HPlcmt-north ZN NECB System 3 PSZ, ERV not required based on exhaust heat content.",
               "For NECB 2011 NECB HDD Method:  Sp-LGstore2 Sys-3 Flr-1 Sch-C HPlcmt-north ZN NECB System 3 PSZ: DCV is not required for any system.",
               "For Sp-LGstore2 Sys-3 Flr-1 Sch-C HPlcmt-north ZN NECB System 3 PSZ: Annual occupied hours = 4168 hr/yr, assuming a 0.15 occupancy threshold.  This schedule will be used as the HVAC operation schedule.",
               "For Sp-LGstore2 Sys-3 Flr-1 Sch-C HPlcmt-north ZN NECB System 3 PSZ: Setting motorized OA damper schedule to Sp-LGstore2 Sys-3 Flr-1 Sch-C HPlcmt-north ZN NECB System 3 PSZ Occ Sch.",
               "For Sp-SMstore1 Sys-3 Flr-1 Sch-C HPlcmt-north ZN NECB System 3 PSZ, ERV not required based on 0% OA flow, design supply air flow of 1088cfm, and climate zone NECB HDD Method.",
               "For Sp-SMstore1 Sys-3 Flr-1 Sch-C HPlcmt-north ZN NECB System 3 PSZ, ERV not required based on exhaust heat content.",
               "For NECB 2011 NECB HDD Method:  Sp-SMstore1 Sys-3 Flr-1 Sch-C HPlcmt-north ZN NECB System 3 PSZ: DCV is not required for any system.",
               "For Sp-SMstore1 Sys-3 Flr-1 Sch-C HPlcmt-north ZN NECB System 3 PSZ: Annual occupied hours = 4168 hr/yr, assuming a 0.15 occupancy threshold.  This schedule will be used as the HVAC operation schedule.",
               "For Sp-SMstore1 Sys-3 Flr-1 Sch-C HPlcmt-north ZN NECB System 3 PSZ: Setting motorized OA damper schedule to Sp-SMstore1 Sys-3 Flr-1 Sch-C HPlcmt-north ZN NECB System 3 PSZ Occ Sch.",
               "For Sp-SMstore2 Sys-3 Flr-1 Sch-C HPlcmt-north ZN NECB System 3 PSZ, ERV not required based on 0% OA flow, design supply air flow of 1066cfm, and climate zone NECB HDD Method.",
               "For Sp-SMstore2 Sys-3 Flr-1 Sch-C HPlcmt-north ZN NECB System 3 PSZ, ERV not required based on exhaust heat content.",
               "For NECB 2011 NECB HDD Method:  Sp-SMstore2 Sys-3 Flr-1 Sch-C HPlcmt-north ZN NECB System 3 PSZ: DCV is not required for any system.",
[...]
mJrcJprFfKK9+RVc9WLV6iBZCQewMmIXcGTELuC5iEbKtgErKtgknItgomIdsqmIRsq2ASJbYKpyEvtzgN2VbhNGRbhdOQbRVOQ7ZVOA3ZVuE0ZFuF05BtFU5DtlW4+reFeV5iq3AaWyjkJbYKp7FeKa98FUk9W7V4VwlAQu4NmITcGTAJuS9gErKtgknItgomIdsqmIRsq2ASsq2CSZTYKpyGvNziNGRbhdOQbRVOQ7ZVOA3ZVuE0ZFuF05BtFU5DtlU4DdlW4erfFuZ5ia3CaWyhkJfYKpzGeqW8csf3erZqsSU8QELuDZiE3BkwCbkvYBKyrYJJyLYKJiHbKpiEbKtgErKtgkmU2Cqchrzc4jRkW4XTkG0VTkO2VTgN2VbhNGRbhdOQbRVOQ7ZVOA3ZVuHq3xbmeYmtwmlsoZCX2CqcxnqlvHJj3Xq2arHzLkBC7g2YhNwZMAm5L2ASsq2CSci2CiYh2yqYhGyrYBKyrYJJlNgqnIa83OI0ZFuF05BtFU5DtlU4DdlW4TRkW4XTkG0VTkO2VTgN2Vbh6t8W5nmJrcJpbKGQl9gqnMZ6pbxy/8J6tmqxwSFAQu4NmITcGTAJuS9gErKtgknItgomIdsqmIRsq2ASsq2CSZRutobSkJdbnEbZRlYojbI9rlAaZdtfoTTK9nxDaZRtB4fSKNspDqVRtokcSqNsfzlU/dvCPC/dlQ6lsYVCXmKrcBrVpfxLnR1el1s3q1MV6dvVBrLFvrGN9GbcLHaArdwqdrX/c6qzF/Es8tNGv9NUrttvqp75W7dfb7vZuxzjfltr3x94mR7Hyfz5XZAu9k++v/8am0znCd4nvk4+zsx2xrUvNBzzxxxvtZfOEr3AMDsyL9t9wxt8M8wwwwwzzDDDDDPMMMMMM8wwwwwzzDDDDDPMMMMMM8wwwwwzzDDDDDPMMMMMM8wwwwwzzDDDDDPMMMMMM8wwwwwzzDDDDDP8lwrP2/GNTpLA128982Ct2+78n8+rmkdj08ePxp7rJNDp8vFap7l6gHgaxlk7DCJd+Yhs+qPndKufrE3bxavnp3HoZUEc5VBOmulp61KP4kQ79Z58fqPHOvIf39DiXOOg01Q98+RyxzzIbP5wQj3KDFhF6lXa9sVYZ2dRZtonlxjNomFB2thVf1akWBHq+6s/Vz7LbY5gpBrZJEjbadEr9YTM8eCidt5+Z95w0vgvsG22Fb55dDxnX+a9mMZpYBK+zE/XuZvVYdL8gCqJb+2QVlhB5GszH1pu0/Lq1XG17oWjQIdmvDWWbbqYJ+Mknk21r37+Wf1tef6ufTHx0uXz72aC7T6Mzn8YzRuk7Y3Hr4xGO9TROJuoZ6qr/qmc52HoqJPHn0jDYKgbLXf3c+fLbuV8++5O4kQ1rvJb6fyirnKZ5VBd6ppzf89XHPsOMocZxst8n6++tL/quTo9PV003noZi6zLbr+yvdXVcZlo7+s6F3+zvMb286a9lnd3aoa1GQzLkVJs5NC+8NI0GEfaH5gtItLPRUt+Wa8pVx09naWTxrp9kXfpyaI/159JYXhS5y7b5pPrqqRZEn/V9XQWn11XKZ56wyCb15NafnjtuyokVlLrZlktJI+XlXWmh/XiY47VdH688KiWcm2z2Uy3+qzfmkVVrfX5b1Wewhx7e+rD75/Uv9///lGdv//46bd3v6o373/9baBen308q5fgVb5q6zvPWDSVxSqNk0xFs+t8HAxVsaVJqrx0mJuXIBrXyLhqe5PnQWX2muqy/uKS6GyWRGrqJal+FcZe1vDMkr+bd+WDc5fFuVqNWW3RHsgub6Eq8bfN7vRy7z+L6V5M9saOr0feLMzUNInzNUzvNNXOT0dHg8HZ2c6GN54hDnGIQxziEIc4xCEOcYhDnL8mjkpn1/k/gZWvzUnle3NDlGifNKQhDWlIQxrSkIY0pCENaUhTTnNb/Nes/6G5DGeaOMQhDnGIQxziEIc4xCEOcYizDs79ewNd897A85n03sCeW/zC9vz5/v7xMUlJSlKSkpSkJCUpSUlKUpKSlKQkfRqk3YLUyyTSTkHa63W7RwckJSlJSUpSkpKUpCQlKUlJSlKSkvRpkPYM6askEEi7xwWp6x4e9nokJSlJSUpSkpKUpCQlKUlJSlKSkvRpkO4b0k+TmUR6VJAe50f/BUlJSlKSkpSkJCUpSUlKUpKSlKQkfRqkfUP6L+1LpIcF6cuXg8HhIUlJSlKSkpSkJCUpSUlKUpKSlKQkfRqkB8U3EzMtkR4UpIPBwQFJSUpSkpKUpCQlKUlJSlKSkpSkJH0qpIeG9G0s7SzY7RekR0fdbr9PUpKSlKQkJSlJSUpSkpKUpCQlKUm3RrpC8RPvtlGZ7K6dBVmozyfeVLczfZc1dl7HsyStxph/f+XL4FpHaRBHoU6LDBUp9vbUc99Xnioyqdsgm6g0vtbK71Vcmd6M2950qiO/4RhtZ7figtXR9rIsaTh3TlMddCwvmucXdetflGbzUC/wWl40nMRJfr0T6pEF7TLHKI6y1q0OxpPM5LiMQ79+jkXfnE9b52/TLE70vjqfp62eehUmLVedDyetgXr9IRxeZ60oTvIu+OOdenc2eGE+lulr1VMfzv9Q74dD89md3bJOfbaXDpNgmv1D/MyzPT+4+XFYvEZOludSgX/qDM2IH+SN5AWRTi76fUcVLXfq+EE6Db35SRCFeah1GcbDr784Ml+edHELKptP8+tN4+1deTfe4mzplea48RIzONWp8oPraajbkb49vxk3nJ++Z2yq/U6n+KNyspm0vpd5ed7Pfzqhd6lD58Tx9cibhZmaJvEoCLXTXEQu7pwTt91pOjdeONPLvw/NmpRfky8zg8HZmfOtWStPF5SnB8qzD8rTB+U5AOU5BOU5AuU5BuVxO6hEqBHtooa0ixrTLmpQu6hR7aKGtYsa1y5qYLuokd1FjewubK1GjewuamR3rUa2SmfX149eUl2roiXat0gjtpFdGrGF7NKI7WOXRpz3dmnEWW+XRpzzdmnEGW+XRpzvdmnkQmaZBzSO5TJmmQc0kuUiZpkHNJblEmaZBzSa5QJmmQc0nuXyZZkHtS6DxrNcuyzz1B/Pt0GU2ZetS3Oqfh6xeSzziM1jmUdsHss84nS3zCNOd8s84nS3zCNOd8s84nS3zCPXL9tEqBEtVzDbRKgxLdcw20SoUS1XMdtEqHEt1zHbRKiRLVcy20SwtRo1suViZpuo/si+/9Wi8q3CUpnrPPqH3uK1wwCJ7uYlepuX2N+8RH/zEgeblzjcvMTR5iWONy/xqLJvSmML87vki1mchvzNFk5D/tILpyF/04vTkL8ExmnI3w/jNOSvjnEa8rfKuPq3hXne3UYd30Ih726hknfXK+WVL2+sZ6sWb3cESMi9AZOQOwMmIfcFTEK2VTAJ2VbBJGRbBZOQbRVMQrZVMImSX65xGvJPfzgN2VbhNGRbhdOQbRVOQ7ZVOA3ZVuE0ZFuF05BtFU5DtlW4+reFeV7yEz9OYwuFvMRW4TTWK+WV78iqZ6sWL9ECSMi9AZOQOwMmIfcFTEK2VTAJ2VbBJGRbBZOQbRVMQrZVMIkSW4XTkJdbnIZsq3Aasq3Caci2Cqch2yqchmyrcBqyrcJpyLYKpyHbKlz928I8L7FVOI0tFPISW4XTWK+UV76KpJ6tWryrBCAh9wZMQu4MmITcFzAJ2VbBJGRbBZOQbRVMQrZVMAnZVsEkSmwVTkNebnEasq3Caci2Cqch2yqchmyrcBqyrcJpyLYKpyHbKpyGbKtw9W8L87zEVuE0tlDIS2wVTmO9Ul6543s9W7XYEh4gIfcGTELuDJiE3BcwCdlWwSRkWwWTkG0VTEK2VTAJ2VbBJEpsFU5DXm5xGrKtwmnItgqnIdsqnIZsq3Aasq3Caci2Cqch2yqchmyrcPVvC/O8xFbhNLZQyEtsFU5jvVJeubFuPVu12HkXICH3BkxC7gyYhNwXMAnZVsEkZFsFk5BtFUxCtlUwCdlWwSRKbBVOQ15ucRqyrcJpyLYKpyHbKpyGbKtwGrKtwmnItgqnIdsqnIZsq3D1bwvzvMRW4TS2UMhLbBVOY71SXrl/YT1btdjgECAh9wZMQu4MmITcFzAJ2VbBJGRbBZOQbRVMQrZVMAnZVsEkSjdbQ2nIyy1Oo2wjK5RG2R5XKI2y7a9QGmV7vqE0yraDQ2mU7RSH0ijbRA6lUba/HKr+bWGel+5Kh9LYQiEvsVU4jepS/qXODq/LrZvVqYr07WoD2WLf2EZ6M24WO8BWbhW72v851dmLeBb5aaPfaSrX7TdVz/yt26+33exdjnG/rbXvD7xMj+Nk/vwuSBf7J9/ff41NpvME7xNfJx9nZjvj2hcajvljjrfaS2eJXmCYHZmX7b7hDb4ZZphhhhlmmGGGGWaYYYYZZphhhhlmmGGGGWaYYYYZZphhhhlmmGGGGWaYYYYZZphhhhlmmGGGGWaYYYYZZphhhhlmmGGGGf5Lheft+EYnSeDrt555sNZtd/7P51XNo7Hp40djz3US6HT5eK3TXD1APA3jrB0Gka58RDb90XO61U/Wpu3i1fPTOPSyII5yKCfN9LR1qUdxop16Tz6/0WMd+Y9vaHGucdBpqp55crljHmQ2fzihHmUGrCL1Km37Yqyzsygz7ZNLjGbRsCBt7Ko/K1KsCPX91Z8rn+U2RzBSjWwSpO206JV6QuZ4cFE7b78zbzhp/BfYNtsK3zw6nrMv815M4zQwCV/mp+vczeowaX5AlcS3dkgrrCDytZkPLbdpefXquFr3wlGgQzPeGss2XcyTcRLPptpXP/+s/rY8f9e+mHjp8vl3M8F2H0bnP4zmDdL2xuNXRqMd6micTdQz1VX/VM7zMHTUyeNPpGEw1I2Wu/u582W3cr59dydxohpX+a10flFXucxyqC51zbm/5yuOfQeZwwzjZb7PV1/aX/VcnZ6eLhpvvYxF1mW3X9ne6uq4TLT3dZ2Lv1leY/t5017Luzs1w9oMhuVIKTZyaF94aRqMI+0PzBYR6eeiJb+s15Srjp7O0klj3b7Iu/Rk0Z/rz6QwPKlzl23zyXVV0iyJv+p6OovPrqsUT71hkM3rSS0/vPZdFRIrqXWzrBaSx8vKOtPDevExx2o6P154VEu5ttlsplt91m/NoqrW+vy3Kk9hjr099eH3T+rf73//qM7ff/z027tf1Zv3v/42UK/PPp7VS/AqX7X1nWcsmspilcZJpqLZdT4OhqrY0iRVXjrMzUsQjWtkXLW9yfOgMntNdVl/cUl0NksiNfWSVL8KYy9reGbJ38278sG5y+JcrcastmgPZJe3UJX422Z3ern3n8V0LyZ7Y8fXI28WZmqaxPkapneaaueno6PB4OxsZ8MbzxCHOMQhDnGIQxziEIc4xCHOXxNHpbPr/J/AytfmpPK9uSFKtE8a0pCGNKQhDWlIQxrSkIY0pCmnuS3+a9b/0FyGM00c4hCHOMQhDnGIQxziEIc4xFkH5/69ga55b+D5THpvYM8tfmF7/nx///iYpCQlKUlJSlKSkpSkJCUpSUlKUpI+DdJuQeplEmmnIO31ut2jA5KSlKQkJSlJSUpSkpKUpCQlKUlJ+jRIe4b0VRIIpN3jgtR1Dw97PZKSlKQkJSlJSUpSkpKUpCQlKUlJ+jRI9w3pp8lMIj0qSI/zo/+CpCQlKUlJSlKSkpSkJCUpSUlKUpI+DdK+If2X9iXSw4L05cvB4PCQpCQlKUlJSlKSkpSkJCUpSUlKUpI+DdKD4puJmZZIDwrSweDggKQkJSlJSUpSkpKUpCQlKUlJSlKSPhXSQ0P6NpZ2Fuz2C9Kjo2633ycpSUlKUpKSlKQkJSlJSUpSkpKUpFsjXaH4iXfbqEx2186CLNTnE2+q25m+yxo7r+NZklZjzL+/8mVwraM0iKNQp0WGihR7e+q57ytPFZnUbZBNVBpfa+X3Kq5Mb8ZtbzrVkd9wjLazW3HB6mh7WZY0nDunqQ46lhfN84u69S9Ks3moF3gtLxpO4iS/3gn1yIJ2mWMUR1nrVgfjSWZyXMahXz/Hom/Op63zt2kWJ7qvzudpq6dehUnLVefDSWugXn8Ih9dZK4qTvAv+eKfenQ1emI9l+lr11IfzP9T74dB8dme3rFOf7aXDJJhm/xA/82zPD25+HBavkZPluVTgnzpDM+IHeSN5QaSTi/6Bo4qWO3X8IJ2G3vwkiMI81LoM4+HXXxyZL0+6uAWVzaf59abx9q68G29xtvRKc9x4iRmc6lT5wfU01O1I357fjBvOT98zNtV+p1P8UTnZTFrfy7w87+c/ndC71KFz4vh65M3CTE2TeBSE2mkuIhd3zonb7jSdGy+c6eXfh2ZNyq/Jl5nB4OzM+daslacLytMD5dkH5emD8hyA8hyC8hyB8hyD8rgdVCLUiHZRQ9pFjWkXNahd1Kh2UcPaRY1rFzWwXdTI7qJGdhe2VqNGdhc1srtWI1uls+vrRy+prlXREu1bpBHbyC6N2EJ2acT2sUsjznu7NOKst0sjznm7NOKMt0sjzne7NHIhs8wDGsdyGbPMAxrJchGzzAMay3IJs8wDGs1yAbPMAxrPcvmyzINal0HjWa5dlnnqj+fbIMrsy9alOVU/j9g8lnnE5rHMIzaPZR5xulvmEae7ZR5xulvmEae7ZR5xulvmkeuXbSLUiJYrmG0i1JiWa5htItSolquYbSLUuJbrmG0i1MiWK5ltIthajRrZcjGzTVR/ZN//alH5VmGpzHUe/UNv8dphgER38xK9zUvsb16iv3mJg81LHG5e4mjzEsebl3hU2TelsYX5XfLFLE5D/mYLpyF/6YXTkL/pxWnIXwLjNOTvh3Ea8lfHOA35W2Vc/dvCPO9uo45voZB3t1DJu+uV8sqXN9azVYu3OwIk5N6AScidAZOQ+wImIdsqmIRsq2ASsq2CSci2CiYh2yqYRMkv1zgN+ac/nIZsq3Aasq3Caci2Cqch2yqchmyrcBqyrcJpyLYKpyHbKlz928I8L/mJH6exhUJeYqtwGuuV8sp3ZNWzVYuXaAEk5N6AScidAZOQ+wImIdsqmIRsq2ASsq2CSci2CiYh2yqYRImtwmnIyy1OQ7ZVOA3ZVuE0ZFuF05BtFU5DtlU4DdlW4TRkW4XTkG0Vrv5tYZ6X2CqcxhYKeYmtwmmsV8orX0VSz1Yt3lUCkJB7AyYhdwZMQu4LmIRsq2ASsq2CSci2CiYh2yqYhGyrYBIltgqnIS+3OA3ZVuE0ZFuF05BtFU5DtlU4DdlW4TRkW4XTkG0VTkO2Vbj6t4V5XmKrcBpbKOQltgqnsV4pr9zxvZ6tWmwJD5CQewMmIXcGTELuC5iEbKtgErKtgknItgomIdsqmIRsq2ASJbYKpyEvtzgN2VbhNGRbhdOQbRVOQ7ZVOA3ZVuE0ZFuF05BtFU5DtlW4+reFeV5iq3AaWyjkJbYKp7FeKa/cWLeerVrsvAuQkHsDJiF3BkxC7guYhGyrYBKyrYJJyLYKJiHbKpiEbKtgEiW2CqchL7c4DdlW4TRkW4XTkG0VTkO2VTgN2VbhNGRbhdOQbRVOQ7ZVuPq3hXleYqtwGlso5CW2CqexXimv3L+wnq1abHAIkJB7AyYhdwZMQu4LmIRsq2ASsq2CSci2CiYh2yqYhGyrYBKlm62hNOTlFqdRtpEVSqNsjyuURtn2VyiNsj3fUBpl28GhNMp2ikNplG0ih9Io218OVf+2MM9Ld6VDaWyhkJfYKpxGdSn/UmeH1+XWzepURfp2tYFssW9sI70ZN4sdYCu3il3t/5zq7EU8i/y00e80lev2m6pn/tbt19tu9i7HuN/W2vcHXqbHcTJ/fheki/2T7++/xibTeYL3ia+TjzOznXHtCw3H/DHHW+2ls0QvMMyOzMt23/AG3wwzzDDDDDPMMMMMM8wwwwwzzDDDDDPMMMMMM8wwwwwzzDDDDDPMMMMMM8wwwwwzzDDDDDPMMMMMM8wwwwwzzDDDDDPMMMMM/6XC83Z8o5Mk8PVbzzxY67Y7/+fzqubR2PTxo7HnOgl0uny81mmuHiCehnHWDoNIVz4im/7oOd3qJ2vTdvHq+WkcelkQRzmUk2Z62rrUozjRTr0nn9/osY78xze0ONc46DRVzzy53DEPMps/nFCPMgNWkXqVtn0x1tlZlJn2ySVGs2hYkDZ21Z8VKVaE+v7qz5XPcpsjGKlGNgnSdlr0Sj0hczy4qJ2335k3nDT+C2ybbYVvHh3P2Zd5L6ZxGpiEL/PTde5mdZg0P6BK4ls7pBVWEPnazIeW27S8enVcrXvhKNChGW+NZZsu5sk4iWdT7auff1Z/W56/a19MvHT5/LuZYLsPo/MfRvMGaXvj8Suj0Q51NM4m6pnqqn8q53kYOurk8SfSMBjqRsvd/dz5sls53767kzhRjav8Vjq/qKtcZjlUl7rm3N/zFce+g8xhhvEy3+erL+2veq5OT08XjbdexiLrstuvbG91dVwm2vu6zsXfLK+x/bxpr+XdnZphbQbDcqQUGzm0L7w0DcaR9gdmi4j0c9GSX9ZrylVHT2fppLFuX+RderLoz/VnUhie1LnLtvnkuipplsRfdT2dxWfXVYqn3jDI5vWklh9e+64KiZXUullWC8njZWWd6WG9+JhjNZ0fLzyqpVzbbDbTrT7rt2ZRVWt9/luVpzDH3p768Psn9e/3v39U5+8/fvrt3a/qzftffxuo12cfz+oleJWv2vrOMxZNZbFK4yRT0ew6HwdDVWxpkiovHebmJYjGNTKu2t7keVCZvaa6rL+4JDqbJZGaekmqX4WxlzU8s+Tv5l354Nxlca5WY1ZbtAeyy1uoSvxtszu93PvPYroXk72x4+uRNwszNU3ifA3TO02189PR0WBwdraz4Y1niEMc4hCHOMQhDnGIQxziEOeviaPS2XX+T2Dla3NS+d7cECXaJw1pSEMa0pCGNKQhDWlIQxrSlNPcFv81639oLsOZJg5xiEMc4hCHOMQhDnGIQxzirINz/95A17w38HwmvTew5xa/sD1/vr9/fExSkpKUpCQlKUlJSlKSkpSkJCUpSZ8Gabcg9TKJtFOQ9nrd7tEBSUlKUpKSlKQkJSlJSUpSkpKUpCR9GqQ9Q/oqCQTS7nFB6rqHh70eSUlKUpKSlKQkJSlJSUpSkpKUpCR9GqT7hvTTZCaRHhWkx/nRf0FSkpKUpCQlKUlJSlKSkpSkJCUpSZ8Gad+Q/kv7EulhQfry5WBweEhSkpKUpCQlKUlJSlKSkpSkJCUpSZ8G6UHxzcRMS6QHBelgcHBAUpKSlKQkJSlJSUpSkpKUpCQlKUmfCumhIX0bSzsLdvsF6dFRt9vvk5SkJCUpSUlKUpKSlKQkJSlJSUrSrZGuUPzEu21UJrtrZ0EW6vOJN9XtTN9ljZ3X8SxJqzHm31/5MrjWURrEUajTIkNFir099dz3laeKTOo2yCYqja+18nsVV6Y347Y3nerIbzhG29mtuGB1tL0sSxrOndNUBx3Li+b5Rd36F6XZPNQLvJYXDSdxkl/vhHpkQbvMMYqjrHWrg/EkMzku49Cvn2PRN+fT1vnbNIsTfaDO52mrp16FSctV58NJa6BefwiH11kripO8C/54p96dDV6Yj2X6WvXUh/M/1Pvh0Hx2Z7esU5/tpcMkmGb/ED/zbM8Pbn4cFq+Rk+W5VOCfOkMz4gd5I3lBpJOL/qGjipY7dfwgnYbe/CSIwjzUugzj4ddfHJkvT7q4BZXNp/n1pvH2rrwbb3G29Epz3HiJGZzqVPnB9TTU7Ujfnt+MG85P3zM21X6nU/xROdlMWt/LvDzv5z+d0LvUoXPi+HrkzcJMTZN4FITaaS4iF3fOidvuNJ0bL5zp5d+HZk3Kr8mXmcHg7Mz51qyVpwvK0wPl2Qfl6YPyHIDyHILyHIHyHIPyuB1UItSIdlFD2kWNaRc1qF3UqHZRw9pFjWsXNbBd1MjuokZ2F7ZWo0Z2FzWyu1YjW6Wz6+tHL6muVdES7VukEdvILo3YQnZpxPaxSyPOe7s04qy3SyPOebs04oy3SyPOd7s0ciGzzAMax3IZs8wDGslyEbPMAxrLcgmzzAMazXIBs8wDGs9y+bLMg1qXQeNZrl2WeeqP59sgyuzL1qU5VT+P2DyWecTmscwjNo9lHnG6W+YRp7tlHnG6W+YRp7tlHnG6W+aR65dtItSIliuYbSLUmJZrmG0i1KiWq5htItS4luuYbSLUyJYrmW0i2FqNGtlyMbNNVH9k3/9qUflWYanMdR79Q2/x2mGARHfzEr3NS+xvXqK/eYmDzUscbl7iaPMSx5uXeFTZN6Wxhfld8sUsTkP+ZgunIX/phdOQv+nFachfAuM05O+HcRryV8c4DflbZVz928I8726jjm+hkHe3UMm765Xyypc31rNVi7c7AiTk3oBJyJ0Bk5D7AiYh2yqYhGyrYBKyrYJJyLYKJiHbKphEyS/XOA35pz+chmyrcBqyrcJpyLYKpyHbKpyGbKtwGrKtwmnItgqnIdsqXP3bwjwv+Ykfp7GFQl5iq3Aa65Xyyndk1bNVi5doASTk3oBJyJ0Bk5D7AiYh2yqYhGyrYBKyrYJJyLYKJiHbKphEia3CacjLLU5DtlU4DdlW4TRkW4XTkG0VTkO2VTgN2VbhNGRbhdOQbRWu/m1hnpfYKpzGFgp5ia3CaaxXyitfRVLPVi3eVQKQkHsDJiF3BkxC7guYhGyrYBKyrYJJyLYKJiHbKpiEbKtgEiW2CqchL7c4DdlW4TRkW4XTkG0VTkO2VTgN2VbhNGRbhdOQbRVOQ7ZVuPq3hXleYqtwGlso5CW2CqexXimv3PG9nq1abAkPkJB7AyYhdwZMQu4LmIRsq2ASsq2CSci2CiYh2yqYhGyrYBIltgqnIS+3OA3ZVuE0ZFuF05BtFU5DtlU4DdlW4TRkW4XTkG0VTkO2Vbj6t4V5XmKrcBpbKOQltgqnsV4pr9xYt56tWuy8C5CQewMmIXcGTELuC5iEbKtgErKtgknItgomIdsqmIRsq2ASJbYKpyEvtzgN2VbhNGRbhdOQbRVOQ7ZVOA3ZVuE0ZFuF05BtFU5DtlW4+reFeV5iq3AaWyjkJbYKp7FeKa/cv7CerVpscAiQkHsDJiF3BkxC7guYhGyrYBKyrYJJyLYKJiHbKpiEbKtgEqWbraE05OUWp1G2kRVKo2yPK5RG2fZXKI2yPd9QGmXbwaE0ynaKQ2mUbSKH0ijbXw5V/7Ywz0t3pUNpbKGQl9gqnEZ1Kf9SZ4fX5dbN6lRF+na1gWyxb2wjvRk3ix1gK7eKXe3/nOrsRTyL/LTR7zSV6/abqmf+1u3X2272Lse439ba9wdepsdxMn9+F6SL/ZPv77/GJtN5gveJr5OPM7Odce0LDcf8Mcdb7aWzRC8wzI7My3bf8AbfDDPMMMMMM8wwwwwzzDDDDDPMMMMMM8wwwwwzzDDDDDPMMMMMM8wwwwwzzDDDDDPMMMMMM8wwwwwzzDDDDDPMMMMMM8wwwwz/pcLzdnyjkyTw9VvPPFjrtjv/5/Oq5tHY9PGjsec6CXS6fLzWaa4eIJ6GcdYOg0hXPiKb/ug53eona9N28er5aRx6WRBHOZSTZnrautSjONFOvSef3+ixjvzHN7Q41zjoNFXPPLncMQ8ymz+cUI8yA1aRepW2fTHW2VmUmfbJJUazaFiQNnbVnxUpVoT6/urPlc9ymyMYqUY2CdJ2WvRKPSFzPLionbffmTecNP4LbJtthW8eHc/Zl3kvpnEamIQv89N17mZ1mDQ/oEriWzukFVYQ+drMh5bbtLx6dVyte+Eo0KEZb41lmy7myTiJZ1Ptq59/Vn9bnr9rX0y8dPn8u5lguw+j8x9G8wZpe+PxK6PRDnU0zibqmeqqfyrneRg66uTxJ9IwGOpGy9393PmyWznfvruTOFGNq/xWOr+oq1xmOVSXuubc3/MVx76DzGGG8TLf56sv7a96rk5PTxeNt17GIuuy269sb3V1XCba+7rOxd8sr7H9vGmv5d2dmmFtBsNypBQbObQvvDQNxpH2B2aLiPRz0ZJf1mvKVUdPZ+mksW5f5F16sujP9WdSGJ7Uucu2+eS6KmmWxF91PZ3FZ9dViqfeMMjm9aSWH177rgqJldS6WVYLyeNlZZ3pYb34mGM1nR8vPKqlXNtsNtOtPuu3ZlFVa33+W5WnMMfenvrw+yf17/e/f1Tn7z9++u3dr+rN+19/G6jXZx/P6iV4la/a+s4zFk1lsUrjJFPR7DofB0NVbGmSKi8d5uYliMY1Mq7a3uR5UJm9prqsv7gkOpslkZp6SapfhbGXNTyz5O/mXfng3GVxrlZjVlu0B7LLW6hK/G2zO73c+89iuheTvbHj65E3CzM1TeJ8DdM7TbXz09HRYHB2trPhjWeIQxziEIc4xCEOcYhDHOIQ56+Jo9LZdf5PYOVrc1L53twQJdonDWlIQxrSkIY0pCENaUhDGtKU09wW/zXrf2guw5kmDnGIQxziEIc4xCEOcYhDHOKsg3P/3kDXvDfwfCa9N7DnFr+wPX++v398TFKSkpSkJCUpSUlKUpKSlKQkJSlJnwZptyD1Mom0U5D2et3u0QFJSUpSkpKUpCQlKUlJSlKSkpSkJH0apD1D+ioJBNLucUHquoeHvR5JSUpSkpKUpCQlKUlJSlKSkpSkJH0apPuG9NNkJpEeFaTH+dF/QVKSkpSkJCUpSUlKUpKSlKQkJSlJnwZp35D+S/sS6WFB+vLlYHB4SFKSkpSkJCUpSUlKUpKSlKQkJSlJnwbpQfHNxExLpAcF6WBwcEBSkpKUpCQlKUlJSlKSkpSkJCUpSZ8K6aEhfRtLOwt2+wXp0VG32++TlKQkJSlJSUpSkpKUpCQlKUlJStKtka5Q/MS7bVQmu2tnQRbq84k31e1M32WNndfxLEmrMebfX/kyuNZRGsRRqNMiQ0WKvT313PeVp4pM6jbIJiqNr7XyexVXpjfjtjed6shvOEbb2a24YHW0vSxLGs6d01QHHcuL5vlF3foXpdk81Au8lhcNJ3GSX++EemRBu8wxiqOsdauD8SQzOS7j0K+fY9E359PW+ds0ixN9qM7naaunXoVJy1Xnw0lroF5/CIfXWSuKk7wL/nin3p0NXpiPZfpa9dSH8z/U++HQfHZnt6xTn+2lwySYZv8QP/Nszw9ufhwWr5GT5blU4J86QzPiB3kjeUGkk4v+kaOKljt1/CCdht78JIjCPNS6DOPh118cmS9PurgFlc2n+fWm8fauvBtvcbb0SnPceIkZnOpU+cH1NNTtSN+e34wbzk/fMzbVfqdT/FE52Uxa38u8PO/nP53Qu9Shc+L4euTNwkxNk3gUhNppLiIXd86J2+40nRsvnOnl34dmTcqvyZeZweDszPnWrJWnC8rTA+XZB+Xpg/IcgPIcgvIcgfIcg/K4HVQi1Ih2UUPaRY1pFzWoXdSodlHD2kWNaxc1sF3UyO6iRnYXtlajRnYXNbK7ViNbpbPr60cvqa5V0RLtW6QR28gujdhCdmnE9rFLI857uzTirLdLI855uzTijLdLI853uzRyIbPMAxrHchmzzAMayXIRs8wDGstyCbPMAxrNcgGzzAMaz3L5ssyDWpdB41muXZZ56o/n2yDK7MvWpTlVP4/YPJZ5xOaxzCM2j2Uecbpb5hGnu2Uecbpb5hGnu2Uecbpb5pHrl20i1IiWK5htItSYlmuYbSLUqJarmG0i1LiW65htItTIliuZbSLYWo0a2XIxs01Uf2Tf/2pR+VZhqcx1Hv1Db/HaYYBEd/MSvc1L7G9eor95iYPNSxxuXuJo8xLHm5d4VNk3pbGF+V3yxSxOQ/5mC6chf+mF05C/6cVpyF8C4zTk74dxGvJXxzgN+VtlXP3bwjzvbqOOb6GQd7dQybvrlfLKlzfWs1WLtzsCJOTegEnInQGTkPsCJiHbKpiEbKtgErKtgknItgomIdsqmETJL9c4DfmnP5yGbKtwGrKtwmnItgqnIdsqnIZsq3Aasq3Caci2Cqch2ypc/dvCPC/5iR+nsYVCXmKrcBrrlfLKd2TVs1WLl2gBJOTegEnInQGTkPsCJiHbKpiEbKtgErKtgknItgomIdsqmESJrcJpyMstTkO2VTgN2VbhNGRbhdOQbRVOQ7ZVOA3ZVuE0ZFuF05BtFa7+bWGel9gqnMYWCnmJrcJprFfKK19FUs9WLd5VApCQewMmIXcGTELuC5iEbKtgErKtgknItgomIdsqmIRsq2ASJbYKpyEvtzgN2VbhNGRbhdOQbRVOQ7ZVOA3ZVuE0ZFuF05BtFU5DtlW4+reFeV5iq3AaWyjkJbYKp7FeKa/c8b2erVpsCQ+QkHsDJiF3BkxC7guYhGyrYBKyrYJJyLYKJiHbKpiEbKtgEiW2CqchL7c4DdlW4TRkW4XTkG0VTkO2VTgN2VbhNGRbhdOQbRVOQ7ZVuPq3hXleYqtwGlso5CW2CqexXimv3Fi3nq1a7LwLkJB7AyYhdwZMQu4LmIRsq2ASsq2CSci2CiYh2yqYhGyrYBIltgqnIS+3OA3ZVuE0ZFuF05BtFU5DtlU4DdlW4TRkW4XTkG0VTkO2Vbj6t4V5XmKrcBpbKOQltgqnsV4pr9y/sJ6tWmxwCJCQewMmIXcGTELuC5iEbKtgErKtgknItgomIdsqmIRsq2ASpZutoTTk5RanUbaRFUqjbI8rlEbZ9lcojbI931AaZdvBoTTKdopDaZRtIofSKNtfDlX/tjDPS3elQ2lsoZCX2CqcRnUp/1Jnh9fl1s3qVEX6drWBbLFvbCO9GTeLHWArt4pd7f+c6uxFPIv8tNHvNJXr9puqZ/7W7dfbbvYux7jf1tr3B16mx3Eyf34XpIv9k+/vv8Ym03mC94mvk48zs51x7QsNx/wxx1vtpbNELzDMjszLdt/wBt8MM8wwwwwzzDDDDDPMMMMMM8wwwwwzzDDDDDPMMMMMM8wwwwwzzDDDDDPMMMMMM8wwwwwzzDDDDDPMMMMMM8wwwwwzzDDDDP+lwvN2fKOTJPD1W888WOu2O//n86rm0dj08aOx5zoJdLp8vNZprh4gnoZx1g6DSFc+Ipv+6Dnd6idr03bx6vlpHHpZEEc5lJNmetq61KM40U69J5/f6LGO/Mc3tDjXOOg0Vc88udwxDzKbP5xQjzIDVpF6lbZ9MdbZWZSZ9sklRrNoWJA2dtWfFSlWhPr+6s+Vz3KbIxipRjYJ0nZa9Eo9IXM8uKidt9+ZN5w0/gtsm22Fbx4dz9mXeS+mcRqYhC/z03XuZnWYND+gSuJbO6QVVhD52syHltu0vHp1XK174SjQoRlvjWWbLubJOIlnU+2rn39Wf1uev2tfTLx0+fy7mWC7D6PzH0bzBml74/Ero9EOdTTOJuqZ6qp/Kud5GDrq5PEn0jAY6sZ/2jvX3rZxLAx/31/B1QATG2Mrlh07l9azSF2nLdA2RZxiMBMEAW0xthJZEkQpiTHIfx9RlrJ2U9WkLm29+/JDnIrky4fkOSRbqsdNo37Ruqxv9LdnPXF9UruJutJ6QW6iZhJTTdoVz36LVhz1CRJJmHGid3Fzqd+yBen3+8vBy6cYqybTfqPa1TSNfUZv81R+VKyjWl6MV9K7vjBrYQyJpcSBHPQryrk1dZg5ECEi+EU8kpf5hjKdaC/ks1reuYim9Gg5n/k9ybaPZHqpi5J5W+GB794yuXaWZfO25Hp0YgULuaaSwrl7FTeRNpVXJV1I1peVPO6hvPiIlLrz+sJDmsRQVVNxN3nWx0a8q0qVf9x0phBpd5d8+nxO/jz9fEZGp2fn7z6+Ie9P37wbkLfDs6GcwEm0arMHKo5oJHAJd/2AOOE8soMJiUOacEL5JDq8WM5UQjEde6GzsjPTBhnLLy4+C0LfIR71OTuxXRrUqFjy69FUrjwbx8+kBnPzEW2l2aQLm4Qfq4308nT+jN09dvbajsmuaWgHxPPdaA1jOw2y88vBwWAwHO5UHHgGOMABDnCAAxzgAAc4wAEOcP43cQgP59FfgYnJxENi0oUg8pkJGtCABjSgAQ1oQAMa0IAGNKD5Ns19/GrWFzRjO2TAAQ5wgAMc4AAHOMABDnCAA5w8OE/fG2iI7w0chVnfG9gx4hu24+O9vcNDkIIUpCAFKUhBClKQghSkIAUpSEG6HaTtmJQGWaStmLTTabcPeiAFKUhBClKQghSkIAUpSEEKUpCCdDtIO4L0xLcySNuHMalh7O93OiAFKUhBClKQghSkIAUpSEEKUpCCdDtI9wTp+SzMIj2ISQ+j1H0FUpCCFKQgBSlIQQpSkIIUpCAFKUi3g7QrSP9gZhbpfkz6+vVgsL8PUpCCFKQgBSlIQQpSkIIUpCAFKUi3g7QX/8tEyLJIezHpYNDrgRSkIAUpSEEKUpCCFKQgBSlIQQrSbSHdF6Qf3KzIgu1uTHpw0G53uyAFKUhBClKQghSkIAUpSEEKUpCC9LuRpiimT+9rG8Ue9MAKbDaaUY/pAXsIajtv3dDnmzEWz2u+tubM4Zbr2IzHChskdnfJsWkSSmIlcm8FM8LdOSNmZ0NNfjfVqecxx6xpom2tvqFCmnQaBH5Ne9AapNdSrLSIKrXlK/FgYbMlXpM6k5nrR/U1m10r0CYa164TNO+ZNZ0FQmPs2qa8xnJuRl5z9IEHrs8OyGjBmx1yYvtNg4wms+aAvP1kT+ZBk1EekL8+ko/DwStRKmBz0iGfRn+R08lEFN2pf2tOX+7yiW95we+ZZV7umtbd17Mz62SLRVrEMvvaRBj8IBojajnMv+oeaiQeuL5mWtyz6eLIcuwoqzm23cntCy2bLxJddoEECy+qL8Zu94be0eXTb9YU6Y76wjZJn5jW3LOZ7rD70d20pv3ynLFB9lqt+MdGXxOyJg1opHvxt2bTMbO1I81k1zS0A+L57rVlM62xzLl60I4MvdXQ7qgdMu2od6gfrqSDw4Y2EQtUpBCtOYPBcKg9NqRU25WodipR3atEtVuJaq8S1f1KVA8qUT2sRNVoVSNbjXcZ1biXUY1/GdU4mFGNhxnVuJhRjY8Z1TiZUY2XtavxsnZFe1g1XtauxsvaBbyM8HA+X/vO7xwnBJ+ZCqKSY6smKjmyaqKS46omKrl2qYlKrlxqopLrlpqo5KqlJiq5ZqmJyh4MFFUr8SnZY4GiaiVeJXsoUFStxK9kjwSKqpV4luyBQFG1Et+SPQ4oqlazX1XiW7JnAUXVvL51bzlB0WPAWBSQV5UcVkVVyWFVVJUcVkVVySVLUVVyyVJUlVyyFFUllyxFVcklS1FV9jygKluNd8meCFRlq/Ev2TOBqmw1HiZ7KlCVrcbHZM8FqrLVeJnsyUBVtqI9rBovkz0cqMoqedmlzIVDcpFI+sRh9+l9RnyNUeN300Z8IbHx5iK9jeQseOWGjslr3VaDGEa3QTrit3ZX7vbjIcJ4umQ1zQEN2NT1F8cPFl/e5j0NhcSVZyRw6pvMPwvF5Zp0RcGxWOf4wCgPfbbEEPeDyRQUvcSN75HWmxox32I8wY1aSibEs91AF5dbG5vkX+v3ZlKux3bnuTYNLNeJoDQeMK85ZteuzzQ5S3rPpswx1zu0fFbrRVbQEZYgLsMM8SO5I914fZzK6ldTFgydQIxP1MR16Exi0lqd/C1xSSoI2VPti42+IZJ1TWrBzOKRXYt6cg2JtFJJj8ZvSCez2n+BVdVS/ORuMNG98lxuCcHX0WOZ3qRJyHyFynfv1ZBSLMsxmXDcptFQrJ2mm7wVry1mC3urJWO69JOp74YeM8mvv5J/J88f9KsZ5cl6Ihysvpq7+GpuNCA6nU5PRBu6zZxpMCMvSZv8h2jHtq2Ro/US3LYmrNY06hety/pGf3vWE9cntZuoK60X5CZqJjHVpF3x7Lc+MdQnSCRhxonexc2lfsui5a3fXw5ePsVYNZn2G9WupmnsM3qbp/KjYh3V8mK8kt71hVkLY0gsJd4Y9avlC0DMjF8B4hfxSF7mG8p0or2Qz2p55yKa0qPlfOb3JNs+kumlLkrmbYUHvnvL5NpZls3bkuvRiRUs5JpKCufuVdxE2lRelXQhWV9W8riH8uIjUurO6wsPaRJDVU3F3eRZHxvxripV/nHTmUKk3V3y6fM5+fP08xkZnZ6dv/v4hrw/ffNuQN4Oz4ZyAifRqs0eqDiikcAl3I0O0k44j+xgQuIjIieUT6LDi+VMJRTTsRc6KzszbZCx/OLisyD0HeJRn7MT26VBjYolvx5N5cqzcfxMajA3H9FWmk26sEn48Qe8qPnFBWzyNqa4UP0h740CBzjAAQ5wgAMc4AAHOMABztbjPH/BRRD5zAQNaEADGtCABjSgAQ1oQAMa0Hyb5tkrgYJGvOIHHOAABzjAAQ5wgAMc4AAHOMD5geERz9ncYz4NQp+R2kkdARJ/qgCJf1BhcW9Z/HE8H1vMCYiYMhH3kJlhNP5Nst862YoQiL3Wzx8CMWL8XiEQ4/94mjcEU0k6nZJ09krS6Zak0ytJZ78knYOSdA5L0lmLLVBIqCyLNsoyaaMsmzbKMmqjLKs2yjJroyy7NsoybKMsy26XZdnt0tbqsiy7XZZlt5UsWz5k35pU/iB9BWQyRyh/IL4CMpl+nz/YXgGZTJ/PH1CvgEymvxcImldEpyQ7zt7GCoTCK6JTkiln72EFAtwV0SnJmrM3sAJh64qsgyXZc/buVSAYXRGdkuw5e+vKH2JuTaZAULkiOpnDUyBwXBGdTHcvEByuiE6muxcIAFdEJ9PdiwR5KyRUlkVn72BFQrcVEirLqLM3sSIB2QoJlWXX2ftYkTBrhVbGsiw7eysrEjytkFBZlp29myEk2laEREM2spGNbGQjG9nIRjaykY1sZCMb2chG9s+UvdDdO+b7lsk+UPEPVYbeQkj8lZ4gJP5TQkh8pYSQ+AiJr5AQEv/LhJD4XyaExFdMCImPkPhfTQiJDxzgAAc4wAEOcIADHOAABzjA2YaAkqABDWhAAxrQgAY0oAENaECzPTT/N4EsgQMc4AAHOMABDnCAAxzgACd/ez8gJP5ra84cbrmOzThHQPyfKyC+69+S4fW1NbGYM1k8hcH/vgHwk9Jf5Kz+Of19+fmknvzy9DF2zYX4nAVz+/d//QPgWOec"
               },
               {
                  "name" : "annual_peak_electric_demand",
                  "units" : "kW",
                  "value" : 236.375
               },
               {
                  "name" : "first_year_capital_cost",
                  "units" : "$",
                  "value" : 0
               },
               {
                  "name" : "annual_utility_cost",
                  "units" : "$",
                  "value" : 0
               },
               {
                  "name" : "total_lifecycle_cost",
                  "units" : "$",
                  "value" : 0
               }
            ],
            "step_warnings" : [ "A table in Annual Overview section returned false and was skipped." ]
         }
      }
   ],
   "updated_at" : "20170710T190146Z",
   "weather_file" : "USA_CO_Denver.Intl.AP.725650_TMY3.epw"
}
