{
   "completed_at" : "20170710T183513Z",
   "completed_status" : "Success",
   "created_at" : "2017-07-10 18:29:58 +0000",
   "current_step" : 5,
   "description" : "",
   "eplusout_err" : "Program Version,EnergyPlus, Version 8.7.0-78a111df4a, YMD=2017.07.10 18:31,IDD_Version 8.7.0\n   ************* IDF Context for following error/warning message:\n   ************* Note -- lines truncated at 300 characters, if necessary...\n   *************      5 Building,\n   ************* indicated Name=NECB 2011-MidriseApartment-NECB HDD Method-CAN_ON_Mount.Forest.716310_CWEC.epw created: 2017-07-10 18:30:04 +0000\n   ************* Only last 1 lines before error line shown.....\n   *************      6   NECB 2011-MidriseApartment-NECB HDD Method-CAN_ON_Mount.Forest.716310_CWEC.epw created: 2017-07-10 18:30:04 +0000, !- Name\n   ** Warning ** IP: IDF line~6 Alpha Argument length exceeds maximum, will be truncated=  NECB 2011-MidriseApartment-NECB HDD Method-CAN_ON_Mount.Forest.716310_CWEC.epw created: 2017-07-10 18:30:04 +000\n   **   ~~~   ** Will be processed as Alpha=NECB 2011-MIDRISEAPARTMENT-NECB HDD METHOD-CAN_ON_MOUNT.FOREST.716310_CWEC.EPW CREATED: 2017-07-10 18:30:04 +0000\n   ************* Beginning Zone Sizing Calculations\n   ** Warning ** ProcessScheduleInput: Schedule:Day:Interval=\"ECONOMIZER MAX OA FRACTION 100 PCT DEFAULT\", Blank Schedule Type Limits Name input -- will not be validated.\n   ** Warning ** ProcessScheduleInput: Schedule:Day:Interval=\"SCHEDULE DAY 1\", Blank Schedule Type Limits Name input -- will not be validated.\n   ** Warning ** ProcessScheduleInput: Schedule:Day:Interval=\"SCHEDULE DAY 10\", Blank Schedule Type Limits Name input -- will not be validated.\n   ** Warning ** ProcessScheduleInput: Schedule:Day:Interval=\"SCHEDULE DAY 11\", Blank Schedule Type Limits Name input -- will not be validated.\n   ** Warning ** ProcessScheduleInput: Schedule:Day:Interval=\"SCHEDULE DAY 12\", Blank Schedule Type Limits Name input -- will not be validated.\n   ** Warning ** ProcessScheduleInput: Schedule:Day:Interval=\"SCHEDULE DAY 13\", Blank Schedule Type Limits Name input -- will not be validated.\n   ** Warning ** ProcessScheduleInput: Schedule:Day:Interval=\"SCHEDULE DAY 14\", Blank Schedule Type Limits Name input -- will not be validated.\n   ** Warning ** ProcessScheduleInput: Schedule:Day:Interval=\"SCHEDULE DAY 15\", Blank Schedule Type Limits Name input -- will not be validated.\n   ** Warning ** ProcessScheduleInput: Schedule:Day:Interval=\"SCHEDULE DAY 16\", Blank Schedule Type Limits Name input -- will not be validated.\n   ** Warning ** ProcessScheduleInput: Schedule:Day:Interval=\"SCHEDULE DAY 17\", Blank Schedule Type Limits Name input -- will not be validated.\n   ** Warning ** ProcessScheduleInput: Schedule:Day:Interval=\"SCHEDULE DAY 18\", Blank Schedule Type Limits Name input -- will not be validated.\n   ** Warning ** ProcessScheduleInput: Schedule:Day:Interval=\"SCHEDULE DAY 19\", Blank Schedule Type Limits Name input -- will not be validated.\n   ** Warning ** ProcessScheduleInput: Schedule:Day:Interval=\"SCHEDULE DAY 2\", Blank Schedule Type Limits Name input -- will not be validated.\n   ** Warning ** ProcessScheduleInput: Schedule:Day:Interval=\"SCHEDULE DAY 20\", Blank Schedule Type Limits Name input -- will not be validated.\n   ** Warning ** ProcessScheduleInput: Schedule:Day:Interval=\"SCHEDULE DAY 21\", Blank Schedule Type Limits Name input -- will not be validated.\n   ** Warning ** ProcessScheduleInput: Schedule:Day:Interval=\"SCHEDULE DAY 22\", Blank Schedule Type Limits Name input -- will not be validated.\n   ** Warning ** ProcessScheduleInput: Schedule:Day:Interval=\"SCHEDULE DAY 23\", Blank Schedule Type Limits Name input -- will not be validated.\n   ** Warning ** ProcessScheduleInput: Schedule:Day:Interval=\"SCHEDULE DAY 24\", Blank Schedule Type Limits Name input -- will not be validated.\n   ** Warning ** ProcessScheduleInput: Schedule:Day:Interval=\"SCHEDULE DAY 25\", Blank Schedule Type Limits Name input -- will not be validated.\n   ** Warning ** ProcessScheduleInput: Schedule:Day:Interval=\"SCHEDULE DAY 26\", Blank Schedule Type Limits Name input -- will not be validated.\n   ** Warning ** ProcessScheduleInput: Schedule:Day:Interval=\"SCHEDULE DAY 27\", Blank Schedule Type Limits Name input -- will not be validated.\n   ** Warning ** ProcessScheduleInput: Schedule:Day:Interval=\"SCHEDULE DAY 28\", Blank Schedule Type Limits Name input -- will not be validated.\n   ** Warning ** ProcessScheduleInput: Schedule:Day:Interval=\"SCHEDULE DAY 29\", Blank Schedule Type Limits Name input -- will not be validated.\n   ** Warning ** ProcessScheduleInput: Schedule:Day:Interval=\"SCHEDULE DAY 30\", Blank Schedule Type Limits Name input -- will not be validated.\n   ** Warning ** ProcessScheduleInput: Schedule:Day:Interval=\"SCHEDULE DAY 31\", Blank Schedule Type Limits Name input -- will not be validated.\n   ** Warning ** ProcessScheduleInput: Schedule:Day:Interval=\"SCHEDULE DAY 32\", Blank Schedule Type Limits Name input -- will not be validated.\n   ** Warning ** ProcessScheduleInput: Schedule:Day:Interval=\"SCHEDULE DAY 33\", Blank Schedule Type Limits Name input -- will not be validated.\n   ** Warning ** ProcessScheduleInput: Schedule:Day:Interval=\"SCHEDULE DAY 34\", Blank Schedule Type Limits Name input -- will not be validated.\n   ** Warning ** ProcessScheduleInput: Schedule:Day:Interval=\"SCHEDULE DAY 35\", Blank Schedule Type Limits Name input -- will not be validated.\n   ** Warning ** ProcessScheduleInput: Schedule:Day:Interval=\"SCHEDULE DAY 36\", Blank Schedule Type Limits Name input -- will not be validated.\n   ** Warning ** ProcessScheduleInput: Schedule:Day:Interval=\"SCHEDULE DAY 37\", Blank Schedule Type Limits Name input -- will not be validated.\n   ** Warning ** ProcessScheduleInput: Schedule:Day:Interval=\"SCHEDULE DAY 38\", Blank Schedule Type Limits Name input -- will not be validated.\n   ** Warning ** ProcessScheduleInput: Schedule:Day:Interval=\"SCHEDULE DAY 39\", Blank Schedule Type Limits Name input -- will not be validated.\n   ** Warning ** ProcessScheduleInput: Schedule:Day:Interval=\"SCHEDULE DAY 40\", Blank Schedule Type Limits Name input -- will not be validated.\n   ** Warning ** ProcessScheduleInput: Schedule:Day:Interval=\"SCHEDULE DAY 41\", Blank Schedule Type Limits Name input -- will not be validated.\n   ** Warning ** ProcessScheduleInput: Schedule:Day:Interval=\"SCHEDULE DAY 42\", Blank Schedule Type Limits Name input -- will not be validated.\n   ** Warning ** ProcessScheduleInput: Schedule:Day:Interval=\"SCHEDULE DAY 43\", Blank Schedule Type Limits Name input -- will not be validated.\n   ** Warning ** ProcessScheduleInput: Schedule:Day:Interval=\"SCHEDULE DAY 44\", Blank Schedule Type Limits Name input -- will not be validated.\n   ** Warning ** ProcessScheduleInput: Schedule:Day:Interval=\"SCHEDULE DAY 45\", Blank Schedule Type Limits Name input -- will not be validated.\n   ** Warning ** ProcessScheduleInput: Schedule:Day:Interval=\"SCHEDULE DAY 46\", Blank Schedule Type Limits Name input -- will not be validated.\n   ** Warning ** ProcessScheduleInput: Schedule:Day:Interval=\"SCHEDULE DAY 47\", Blank Schedule Type Limits Name input -- will not be validated.\n   ** Warning ** ProcessScheduleInput: Schedule:Day:Interval=\"SCHEDULE DAY 48\", Blank Schedule Type Limits Name input -- will not be validated.\n   ** Warning ** ProcessScheduleInput: Schedule:Day:Interval=\"SCHEDULE DAY 49\", Blank Schedule Type Limits Name input -- will not be validated.\n   ** Warning ** ProcessScheduleInput: Schedule:Day:Interval=\"SCHEDULE DAY 50\", Blank Schedule Type Limits Name input -- will not be validated.\n   ** Warning ** ProcessScheduleInput: Schedule:Day:Interval=\"SCHEDULE DAY 51\", Blank Schedule Type Limits Name input -- will not be validated.\n   ** Warning ** ProcessScheduleInput: Schedule:Day:Interval=\"SCHEDULE DAY 52\", Blank Schedule Type Limits Name input -- will not be validated.\n   ** Warning ** ProcessScheduleInput: Schedule:Day:Interval=\"SCHEDULE DAY 53\", Blank Schedule Type Limits Name input -- will not be validated.\n   ** Warning ** ProcessScheduleInput: Schedule:Day:Interval=\"SCHEDULE DAY 54\", Blank Schedule Type Limits Name input -- will not be validated.\n   ** Warning ** ProcessScheduleInput: Schedule:Day:Interval=\"SCHEDULE DAY 55\", Blank Schedule Type Limits Name input -- will not be validated.\n   ** Warning ** ProcessScheduleInput: Schedule:Day:Interval=\"SCHEDULE DAY 56\", Blank Schedule Type Limits Name input -- will not be validated.\n   ** Warning ** ProcessScheduleInput: Schedule:Day:Interval=\"SCHEDULE DAY 57\", Blank Schedule Type Limits Name input -- will not be validated.\n   ** Warning ** ProcessScheduleInput: Schedule:Day:Interval=\"SCHEDULE DAY 58\", Blank Schedule Type Limits Name input -- will not be validated.\n   ** Warning ** ProcessScheduleInput: Schedule:Day:Interval=\"SCHEDULE DAY 59\", Blank Schedule Type Limits Name input -- will not be validated.\n   ** Warning ** ProcessScheduleInput: Schedule:Day:Interval=\"SCHEDULE DAY 6\", Blank Schedule Type Limits Name input -- will not be validated.\n   ** Warning ** ProcessScheduleInput: Schedule:Day:Interval=\"SCHEDULE DAY 60\", Blank Schedule Type Limits Name input -- will not be validated.\n   ** Warning ** ProcessScheduleInput: Schedule:Day:Interval=\"SCHEDULE DAY 61\", Blank Schedule Type Limits Name input -- will not be validated.\n   ** Warning ** ProcessScheduleInput: Schedule:Day:Interval=\"SCHEDULE DAY 62\", Blank Schedule Type Limits Name input -- will not be validated.\n   ** Warning ** ProcessScheduleInput: Schedule:Day:Interval=\"SCHEDULE DAY 63\", Blank Schedule Type Limits Name input -- will not be validated.\n   ** Warning ** ProcessScheduleInput: Schedule:Day:Interval=\"SCHEDULE DAY 64\", Blank Schedule Type Limits Name input -- will not be validated.\n   ** Warning ** ProcessScheduleInput: Schedule:Day:Interval=\"SCHEDULE DAY 65\", Blank Schedule Type Limits Name input -- will not be validated.\n   ** Warning ** ProcessScheduleInput: Schedule:Day:Interval=\"SCHEDULE DAY 66\", Blank Schedule Type Limits Name input -- will not be validated.\n   ** Warning ** ProcessScheduleInput: Schedule:Day:Interval=\"SCHEDULE DAY 67\", Blank Schedule Type Limits Name input -- will not be validated.\n   ** Warning ** ProcessScheduleInput: Schedule:Day:Interval=\"SCHEDULE DAY 68\", Blank Schedule Type Limits Name input -- will not be validated.\n   ** Warning ** ProcessScheduleInput: Schedule:Day:Interval=\"SCHEDULE DAY 69\", Blank Schedule Type Limits Name input -- will not be validated.\n   ** Warning ** ProcessScheduleInput: Schedule:Day:Interval=\"SCHEDULE DAY 7\", Blank Schedule Type Limits Name input -- will not be validated.\n   ** Warning ** ProcessScheduleInput: Schedule:Day:Interval=\"SCHEDULE DAY 70\", Blank Schedule Type Limits Name input -- will not be validated.\n   ** Warning ** ProcessScheduleInput: Schedule:Day:Interval=\"SCHEDULE DAY 71\", Blank Schedule Type Limits Name input -- will not be validated.\n   ** Warning ** ProcessScheduleInput: Schedule:Day:Interval=\"SCHEDULE DAY 72\", Blank Schedule Type Limits Name input -- will not be validated.\n   ** Warning ** ProcessScheduleInput: Schedule:Day:Interval=\"SCHEDULE DAY 73\", Blank Schedule Type Limits Name input -- will not be validated.\n   ** Warning ** ProcessScheduleInput: Schedule:Day:Interval=\"SCHEDULE DAY 74\", Blank Schedule Type Limits Name input -- will not be validated.\n   ** Warning ** ProcessScheduleInput: Schedule:Day:Interval=\"SCHEDULE DAY 75\", Blank Schedule Type Limits Name input -- will not be validated.\n   ** Warning ** ProcessScheduleInput: Schedule:Day:Interval=\"SCHEDULE DAY 76\", Blank Schedule Type Limits Name input -- will not be validated.\n   ** Warning ** ProcessScheduleInput: Schedule:Day:Interval=\"SCHEDULE DAY 77\", Blank Schedule Type Limits Name input -- will not be validated.\n   ** Warning ** ProcessScheduleInput: Schedule:Day:Interval=\"SCHEDULE DAY 78\", Blank Schedule Type Limits Name input -- will not be validated.\n   ** Warning ** ProcessScheduleInput: Schedule:Day:Interval=\"SCHEDULE DAY 79\", Blank Schedule Type Limits Name input -- will not be validated.\n   ** Warning ** ProcessScheduleInput: Schedule:Day:Interval=\"SCHEDULE DAY 8\", Blank Schedule Type Limits Name input -- will not be validated.\n   ** Warning ** ProcessScheduleInput: Schedule:Day:Interval=\"SCHEDULE DAY 9\", Blank Schedule Type Limits Name input -- will not be validated.\n   ** Warning ** ProcessScheduleInput: Schedule:Year=\"ECONOMIZER MAX OA FRACTION 100 PCT\", Blank Schedule Type Limits Name input -- will not be validated.\n   ** Warning ** ProcessScheduleInput: Schedule:Year=\"SCHEDULE RULESET 10\", Blank Schedule Type Limits Name input -- will not be validated.\n   ** Warning ** ProcessScheduleInput: Schedule:Year=\"SCHEDULE RULESET 11\", Blank Schedule Type Limits Name input -- will not be validated.\n   ** Warning ** ProcessScheduleInput: Schedule:Year=\"SCHEDULE RULESET 12\", Blank Schedule Type Limits Name input -- will not be validated.\n   ** Warning ** ProcessScheduleInput: Schedule:Year=\"SCHEDULE RULESET 13\", Blank Schedule Type Limits Name input -- will not be validated.\n   ** Warning ** ProcessScheduleInput: Schedule:Year=\"SCHEDULE RULESET 14\", Blank Schedule Type Limits Name input -- will not be validated.\n   ** Warning ** ProcessScheduleInput: Schedule:Year=\"SCHEDULE RULESET 15\", Blank Schedule Type Limits Name input -- will not be validated.\n   ** Warning ** ProcessScheduleInput: Schedule:Year=\"SCHEDULE RULESET 16\", Blank Schedule Type Limits Name input -- will not be validated.\n   ** Warning ** ProcessScheduleInput: Schedule:Year=\"SCHEDULE RULESET 17\", Blank Schedule Type Limits Name input -- will not be validated.\n   ** Warning ** ProcessScheduleInput: Schedule:Year=\"SCHEDULE RULESET 18\", Blank Schedule Type Limits Name input -- will not be validated.\n   ** Warning ** ProcessScheduleInput: Schedule:Year=\"SCHEDULE RULESET 19\", Blank Schedule Type Limits Name input -- will not be validated.\n   ** Warning ** ProcessScheduleInput: Schedule:Year=\"SCHEDULE RULESET 20\", Blank Schedule Type Limits Name input -- will not be validated.\n   ** Warning ** ProcessScheduleInput: Schedule:Year=\"SCHEDULE RULESET 21\", Blank Schedule Type Limits Name input -- will not be validated.\n   ** Warning ** ProcessScheduleInput: Schedule:Year=\"SCHEDULE RULESET 22\", Blank Schedule Type Limits Name input -- will not be validated.\n   ** Warning ** ProcessScheduleInput: Schedule:Year=\"SCHEDULE RULESET 23\", Blank Schedule Type Limits Name input -- will not be validated.\n   ** Warning ** ProcessScheduleInput: Schedule:Year=\"SCHEDULE RULESET 24\", Blank Schedule Type Limits Name input -- will not be validated.\n   ** Warning ** ProcessScheduleInput: Schedule:Year=\"SCHEDULE RULESET 25\", Blank Schedule Type Limits Name input -- will not be validated.\n   ** Warning ** ProcessScheduleInput: Schedule:Year=\"SCHEDULE RULESET 26\", Blank Schedule Type Limits Name input -- will not be validated.\n   ** Warning ** ProcessScheduleInput: Schedule:Year=\"SCHEDULE RULESET 27\", Blank Schedule Type Limits Name input -- will not be validated.\n   ** Warning ** ProcessScheduleInput: Schedule:Year=\"SCHEDULE RULESET 28\", Blank Schedule Type Limits Name input -- will not be validated.\n   ** Warning ** ProcessScheduleInput: Schedule:Year=\"SCHEDULE RULESET 29\", Blank Schedule Type Limits Name input -- will not be validated.\n   ** Warning ** ProcessScheduleInput: Schedule:Year=\"SCHEDULE RULESET 3\", Blank Schedule Type Limits Name input -- will not be validated.\n   ** Warning ** ProcessScheduleInput: Schedule:Year=\"SCHEDULE RULESET 30\", Blank Schedule Type Limits Name input -- will not be validated.\n   ** Warning ** ProcessScheduleInput: Schedule:Year=\"SCHEDULE RULESET 31\", Blank Schedule Type Limits Name input -- will not be validated.\n   ** Warning ** ProcessScheduleInput: Schedule:Year=\"SCHEDULE RULESET 32\", Blank Schedule Type Limits Name input -- will not be validated.\n   ** Warning ** ProcessScheduleInput: Schedule:Year=\"SCHEDULE RULESET 33\", Blank Schedule Type Limits Name input -- will not be validated.\n   ** Warning ** ProcessScheduleInput: Schedule:Year=\"SCHEDULE RULESET 34\", Blank Schedule Type Limits Name input -- will not be validated.\n   ** Warning ** ProcessScheduleInput: Schedule:Year=\"SCHEDULE RULESET 35\", Blank Schedule Type Limits Name input -- will not be validated.\n   ** Warning ** ProcessScheduleInput: Schedule:Year=\"SCHEDULE RULESET 36\", Blank Schedule Type Limits Name input -- will not be validated.\n   ** Warning ** ProcessScheduleInput: Schedule:Year=\"SCHEDULE RULESET 37\", Blank Schedule Type Limits Name input -- will not be validated.\n   ** Warning ** ProcessScheduleInput: Schedule:Year=\"SCHEDULE RULESET 38\", Blank Schedule Type Limits Name input -- will not be validated.\n   ** Warning ** ProcessScheduleInput: Schedule:Year=\"SCHEDULE RULESET 39\", Blank Schedule Type Limits Name input -- will not be validated.\n   ** Warning ** ProcessScheduleInput: Schedule:Year=\"SCHEDULE RULESET 4\", Blank Schedule Type Limits Name input -- will not be validated.\n   ** Warning ** ProcessScheduleInput: Schedule:Year=\"SCHEDULE RULESET 40\", Blank Schedule Type Limits Name input -- will not be validated.\n   ** Warning ** ProcessScheduleInput: Schedule:Year=\"SCHEDULE RULESET 41\", Blank Schedule Type Limits Name input -- will not be validated.\n   ** Warning ** ProcessScheduleInput: Schedule:Year=\"SCHEDULE RULESET 42\", Blank Schedule Type Limits Name input -- will not be validated.\n   ** Warning ** ProcessScheduleInput: Schedule:Year=\"SCHEDULE RULESET 43\", Blank Schedule Type Limits Name input -- will not be validated.\n   ** Warning ** ProcessScheduleInput: Schedule:Year=\"SCHEDULE RULESET 44\", Blank Schedule Type Limits Name input -- will not be validated.\n   ** Warning ** ProcessScheduleInput: Schedule:Year=\"SCHEDULE RULESET 45\", Blank Schedule Type Limits Name input -- will not be validated.\n   ** Warning ** ProcessScheduleInput: Schedule:Year=\"SCHEDULE RULESET 46\", Blank Schedule Type Limits Name input -- will not be validated.\n   ** Warning ** ProcessScheduleInput: Schedule:Year=\"SCHEDULE RULESET 47\", Blank Schedule Type Limits Name input -- will not be validated.\n   ** Warning ** ProcessScheduleInput: Schedule:Year=\"SCHEDULE RULESET 48\", Blank Schedule Type Limits Name input -- will not be validated.\n   ** Warning ** ProcessScheduleInput: Schedule:Year=\"SCHEDULE RULESET 49\", Blank Schedule Type Limits Name input -- will not be validated.\n   ** Warning ** ProcessScheduleInput: Schedule:Year=\"SCHEDULE RULESET 5\", Blank Schedule Type Limits Name input -- will not be validated.\n   ** Warning ** ProcessScheduleInput: Schedule:Year=\"SCHEDULE RULESET 50\", Blank Schedule Type Limits Name input -- will not be validated.\n   ** Warning ** ProcessScheduleInput: Schedule:Year=\"SCHEDULE RULESET 51\", Blank Schedule Type Limits Name input -- will not be validated.\n   ** Warning ** ProcessScheduleInput: Schedule:Year=\"SCHEDULE RULESET 52\", Blank Schedule Type Limits Name input -- will not be validated.\n   ** Warning ** ProcessScheduleInput: Schedule:Year=\"SCHEDULE RULESET 53\", Blank Schedule Type Limits Name input -- will not be validated.\n   ** Warning ** ProcessScheduleInput: Schedule:Year=\"SCHEDULE RULESET 54\", Blank Schedule Type Limits Name input -- will not be validated.\n   ** Warning ** ProcessScheduleInput: Schedule:Year=\"SCHEDULE RULESET 55\", Blank Schedule Type Limits Name input -- will not be validated.\n   ** Warning ** ProcessScheduleInput: Schedule:Year=\"SCHEDULE RULESET 56\", Blank Schedule Type Limits Name input -- will not be validated.\n   ** Warning ** ProcessScheduleInput: Schedule:Year=\"SCHEDULE RULESET 57\", Blank Schedule Type Limits Name input -- will not be validated.\n   ** Warning ** ProcessScheduleInput: Schedule:Year=\"SCHEDULE RULESET 58\", Blank Schedule Type Limits Name input -- will not be validated.\n   ** Warning ** ProcessScheduleInput: Schedule:Year=\"SCHEDULE RULESET 59\", Blank Schedule Type Limits Name input -- will not be validated.\n   ** Warning ** ProcessScheduleInput: Schedule:Year=\"SCHEDULE RULESET 6\", Blank Schedule Type Limits Name input -- will not be validated.\n   ** Warning ** ProcessScheduleInput: Schedule:Year=\"SCHEDULE RULESET 60\", Blank Schedule Type Limits Name input -- will not be validated.\n   ** Warning ** ProcessScheduleInput: Schedule:Year=\"SCHEDULE RULESET 61\", Blank Schedule Type Limits Name input -- will not be validated.\n   ** Warning ** ProcessScheduleInput: Schedule:Year=\"SCHEDULE RULESET 62\", Blank Schedule Type Limits Name input -- will not be validated.\n   ** Warning ** ProcessScheduleInput: Schedule:Year=\"SCHEDULE RULESET 63\", Blank Schedule Type Limits Name input -- will not be validated.\n   ** Warning ** ProcessScheduleInput: Schedule:Year=\"SCHEDULE RULESET 64\", Blank Schedule Type Limits Name input -- will not be validated.\n   ** Warning ** ProcessScheduleInput: Schedule:Year=\"SCHEDULE RULESET 65\", Blank Schedule Type Limits Name input -- will not be validated.\n   ** Warning ** ProcessScheduleInput: Schedule:Year=\"SCHEDULE RULESET 66\", Blank Schedule Type Limits Name input -- will not be validated.\n   ** Warning ** ProcessScheduleInput: Schedule:Year=\"SCHEDULE RULESET 67\", Blank Schedule Type Limits Name input -- will not be validated.\n   ** Warning ** ProcessScheduleInput: Schedule:Year=\"SCHEDULE RULESET 68\", Blank Schedule Type Limits Name input -- will not be validated.\n   ** Warning ** ProcessScheduleInput: Schedule:Year=\"SCHEDULE RULESET 69\", Blank Schedule Type Limits Name input -- will not be validated.\n   ** Warning ** ProcessScheduleInput: Schedule:Year=\"SCHEDULE RULESET 7\", Blank Schedule Type Limits Name input -- will not be validated.\n   ** Warning ** ProcessScheduleInput: Schedule:Year=\"SCHEDULE RULESET 70\", Blank Schedule Type Limits Name input -- will not be validated.\n   ** Warning ** ProcessScheduleInput: Schedule:Year=\"SCHEDULE RULESET 71\", Blank Schedule Type Limits Name input -- will not be validated.\n   ** Warning ** ProcessScheduleInput: Schedule:Year=\"SCHEDULE RULESET 72\", Blank Schedule Type Limits Name input -- will not be validated.\n   ** Warning ** ProcessScheduleInput: Schedule:Year=\"SCHEDULE RULESET 73\", Blank Schedule Type Limits Name input -- will not be validated.\n   ** Warning ** ProcessScheduleInput: Schedule:Year=\"SCHEDULE RULESET 74\", Blank Schedule Type Limits Name input -- will not be validated.\n   ** Warning ** ProcessScheduleInput: Schedule:Year=\"SCHEDULE RULESET 8\", Blank Schedule Type Limits Name input -- will not be validated.\n   ** Warning ** ProcessScheduleInput: Schedule:Year=\"SCHEDULE RULESET 9\", Blank Schedule Type Limits Name input -- will not be validated.\n   ** Warning ** ProcessScheduleInput: Schedule:Constant=\"ALWAYS OFF DISCRETE\", Blank Schedule Type Limits Name input -- will not be validated.\n   ** Warning ** ProcessScheduleInput: Schedule:Constant=\"ALWAYS ON CONTINUOUS\", Blank Schedule Type Limits Name input -- will not be validated.\n   ** Warning ** CheckUsedConstructions: There are 26 nominally unused constructions in input.\n   **   ~~~   ** For explicit details on each unused construction, use Output:Diagnostics,DisplayExtraWarnings;\n   ************* Beginning System Sizing Calculations\n   ** Warning ** GetDXCoils: Coil:Cooling:DX:SingleSpeed=\"COIL COOLING DX SINGLE SPEED 24 6KBTU/HR 11.0EER\", invalid\n   **   ~~~   ** ...Part Load Fraction Correlation Curve Name = DXCOOL-NECB2011-REF-COOLPLFFPLR 16 has out of range value.\n   **   ~~~   ** ...Curve maximum must be <= 1.0, curve max at PLR = 0.99 is 1.015\n   **   ~~~   ** ...Setting curve maximum to 1.0 and simulation continues.\n   ** Warning ** GetDXCoils: Coil:Cooling:DX:SingleSpeed=\"COIL COOLING DX SINGLE SPEED 22 5KBTU/HR 11.0EER\", invalid\n   **   ~~~   ** ...Part Load Fraction Correlation Curve Name = DXCOOL-NECB2011-REF-COOLPLFFPLR 14 has out of range value.\n   **   ~~~   ** ...Curve maximum must be <= 1.0, curve max at PLR = 0.99 is 1.015\n   **   ~~~   ** ...Setting curve maximum to 1.0 and simulation continues.\n   ** Warning ** GetDXCoils: Coil:Cooling:DX:SingleSpeed=\"COIL COOLING DX SINGLE SPEED 21 5KBTU/HR 11.0EER\", invalid\n   **   ~~~   ** ...Part Load Fraction Correlation Curve Name = DXCOOL-NECB2011-REF-COOLPLFFPLR 13 has out of range value.\n   **   ~~~   ** ...Curve maximum must be <= 1.0, curve max at PLR = 0.99 is 1.015\n   **   ~~~   ** ...Setting curve maximum to 1.0 and simulation continues.\n   ** Warning ** GetDXCoils: Coil:Cooling:DX:SingleSpeed=\"COIL COOLING DX SINGLE SPEED 23 9KBTU/HR 10.5EER\", invalid\n   **   ~~~   ** ...Part Load Fraction Correlation Curve Name = DXCOOL-NECB2011-REF-COOLPLFFPLR 15 has out of range value.\n   **   ~~~   ** ...Curve maximum must be <= 1.0, curve max at PLR = 0.99 is 1.015\n   **   ~~~   ** ...Setting curve maximum to 1.0 and simulation continues.\n   ** Warning ** GetDXCoils: Coil:Cooling:DX:SingleSpeed=\"COIL COOLING DX SINGLE SPEED 20 9KBTU/HR 10.6EER\", invalid\n   **   ~~~   ** ...Part Load Fraction Correlation Curve Name = DXCOOL-NECB2011-REF-COOLPLFFPLR 12 has out of range value.\n   **   ~~~   ** ...Curve maximum must be <= 1.0, curve max at PLR = 0.99 is 1.015\n   **   ~~~   ** ...Setting curve maximum to 1.0 and simulation continues.\n   ** Warning ** GetDXCoils: Coil:Cooling:DX:SingleSpeed=\"COIL COOLING DX SINGLE SPEED 25 7KBTU/HR 11.0EER\", invalid\n   **   ~~~   ** ...Part Load Fraction Correlation Curve Name = DXCOOL-NECB2011-REF-COOLPLFFPLR 17 has out of range value.\n   **   ~~~   ** ...Curve maximum must be <= 1.0, curve max at PLR = 0.99 is 1.015\n   **   ~~~   ** ...Setting curve maximum to 1.0 and simulation continues.\n   ** Warning ** GetDXCoils: Coil:Cooling:DX:SingleSpeed=\"COIL COOLING DX SINGLE SPEED 26 7KBTU/HR 11.0EER\", invalid\n   **   ~~~   ** ...Part Load Fraction Correlation Curve Name = DXCOOL-NECB2011-REF-COOLPLFFPLR 18 has out of range value.\n   **   ~~~   ** ...Curve maximum must be <= 1.0, curve max at PLR = 0.99 is 1.015\n   **   ~~~   ** ...Setting curve maximum to 1.0 and simulation continues.\n   ** Warning ** GetDXCoils: Coil:Cooling:DX:SingleSpeed=\"COIL COOLING DX SINGLE SPEED 27 10KBTU/HR 10.4EER\", invalid\n   **   ~~~   ** ...Part Load Fraction Correlation Curve Name = DXCOOL-NECB2011-REF-COOLPLFFPLR 19 has out of range value.\n   **   ~~~   ** ...Curve maximum must be <= 1.0, curve max at PLR = 0.99 is 1.015\n   **   ~~~   ** ...Setting curve maximum to 1.0 and simulation continues.\n   ** Warning ** GetDXCoils: Coil:Cooling:DX:SingleSpeed=\"COIL COOLING DX SINGLE SPEED 6 6KBTU/HR 11.0EER\", invalid\n   **   ~~~   ** ...Part Load Fraction Correlation Curve Name = DXCOOL-NECB2011-REF-COOLPLFFPLR 24 has out of range value.\n   **   ~~~   ** ...Curve maximum must be <= 1.0, curve max at PLR = 0.99 is 1.015\n   **   ~~~   ** ...Setting curve maximum to 1.0 and simulation continues.\n   ** Warning ** GetDXCoils: Coil:Cooling:DX:SingleSpeed=\"COIL COOLING DX SINGLE SPEED 4 5KBTU/HR 11.0EER\", invalid\n   **   ~~~   ** ...Part Load Fraction Correlation Curve Name = DXCOOL-NECB2011-REF-COOLPLFFPLR 22 has out of range value.\n   **   ~~~   ** ...Curve maximum must be <= 1.0, curve max at PLR = 0.99 is 1.015\n   **   ~~~   ** ...Setting curve maximum to 1.0 and simulation continues.\n   ** Warning ** GetDXCoils: Coil:Cooling:DX:SingleSpeed=\"COIL COOLING DX SINGLE SPEED 3 5KBTU/HR 11.0EER\", invalid\n   **   ~~~   ** ...Part Load Fraction Correlation Curve Name = DXCOOL-NECB2011-REF-COOLPLFFPLR 21 has out of range value.\n   **   ~~~   ** ...Curve maximum must be <= 1.0, curve max at PLR = 0.99 is 1.015\n   **   ~~~   ** ...Setting curve maximum to 1.0 and simulation continues.\n   ** Warning ** GetDXCoils: Coil:Cooling:DX:SingleSpeed=\"COIL COOLING DX SINGLE SPEED 2 10KBTU/HR 10.4EER\", invalid\n   **   ~~~   ** ...Part Load Fraction Correlation Curve Name = DXCOOL-NECB2011-REF-COOLPLFFPLR 11 has out of range value.\n   **   ~~~   ** ...Curve maximum must be <= 1.0, curve max at PLR = 0.99 is 1.015\n   **   ~~~   ** ...Setting curve maximum to 1.0 and simulation continues.\n   ** Warning ** GetDXCoils: Coil:Cooling:DX:SingleSpeed=\"COIL COOLING DX SINGLE SPEED 5 10KBTU/HR 10.3EER\", invalid\n   **   ~~~   ** ...Part Load Fraction Correlation Curve Name = DXCOOL-NECB2011-REF-COOLPLFFPLR 23 has out of range value.\n   **   ~~~   ** ...Curve maximum must be <= 1.0, curve max at PLR = 0.99 is 1.015\n   **   ~~~   ** ...Setting curve maximum to 1.0 and simulation continues.\n   ** Warning ** GetDXCoils: Coil:Cooling:DX:SingleSpeed=\"COIL COOLING DX SINGLE SPEED 7 7KBTU/HR 11.0EER\", invalid\n   **   ~~~   ** ...Part Load Fraction Correlation Curve Name = DXCOOL-NECB2011-REF-COOLPLFFPLR 25 has out of range value.\n   **   ~~~   ** ...Curve maximum must be <= 1.0, curve max at PLR = 0.99 is 1.015\n   **   ~~~   ** ...Setting curve maximum to 1.0 and simulation continues.\n   ** Warning ** GetDXCoils: Coil:Cooling:DX:SingleSpeed=\"COIL COOLING DX SINGLE SPEED 9 7KBTU/HR 10.9EER\", invalid\n   **   ~~~   ** ...Part Load Fraction Correlation Curve Name = DXCOOL-NECB2011-REF-COOLPLFFPLR 27 has out of range value.\n   **   ~~~   ** ...Curve maximum must be <= 1.0, curve max at PLR = 0.99 is 1.015\n   **   ~~~   ** ...Setting curve maximum to 1.0 and simulation continues.\n   ** Warning ** GetDXCoils: Coil:Cooling:DX:SingleSpeed=\"COIL COOLING DX SINGLE SPEED 8 10KBTU/HR 10.4EER\", invalid\n   **   ~~~   ** ...Part Load Fraction Correlation Curve Name = DXCOOL-NECB2011-REF-COOLPLFFPLR 26 has out of range value.\n   **   ~~~   ** ...Curve maximum must be <= 1.0, curve max at PLR = 0.99 is 1.015\n   **   ~~~   ** ...Setting curve maximum to 1.0 and simulation continues.\n   ** Warning ** GetDXCoils: Coil:Cooling:DX:SingleSpeed=\"COIL COOLING DX SINGLE SPEED 10 11KBTU/HR 10.1EER\", invalid\n   **   ~~~   ** ...Part Load Fraction Correlation Curve Name = DXCOOL-NECB2011-REF-COOLPLFFPLR 1 has out of range value.\n   **   ~~~   ** ...Curve maximum must be <= 1.0, curve max at PLR = 0.99 is 1.015\n   **   ~~~   ** ...Setting curve maximum to 1.0 and simulation continues.\n   ** Warning ** GetDXCoils: Coil:Cooling:DX:SingleSpeed=\"COIL COOLING DX SINGLE SPEED 15 10KBTU/HR 10.3EER\", invalid\n   **   ~~~   ** ...Part Load Fraction Correlation Curve Name = DXCOOL-NECB2011-REF-COOLPLFFPLR 6 has out of range value.\n   **   ~~~   ** ...Curve maximum must be <= 1.0, curve max at PLR = 0.99 is 1.015\n   **   ~~~   ** ...Setting curve maximum to 1.0 and simulation continues.\n   ** Warning ** GetDXCoils: Coil:Cooling:DX:SingleSpeed=\"COIL COOLING DX SINGLE SPEED 12 9KBTU/HR 10.6EER\", invalid\n   **   ~~~   ** ...Part Load Fraction Correlation Curve Name = DXCOOL-NECB2011-REF-COOLPLFFPLR 3 has out of range value.\n   **   ~~~   ** ...Curve maximum must be <= 1.0, curve max at PLR = 0.99 is 1.015\n   **   ~~~   ** ...Setting curve maximum to 1.0 and simulation continues.\n   ** Warning ** GetDXCoils: Coil:Cooling:DX:SingleSpeed=\"COIL COOLING DX SINGLE SPEED 13 9KBTU/HR 10.6EER\", invalid\n   **   ~~~   ** ...Part Load Fraction Correlation Curve Name = DXCOOL-NECB2011-REF-COOLPLFFPLR 4 has out of range value.\n   **   ~~~   ** ...Curve maximum must be <= 1.0, curve max at PLR = 0.99 is 1.015\n   **   ~~~   ** ...Setting curve maximum to 1.0 and simulation continues.\n   ** Warning ** GetDXCoils: Coil:Cooling:DX:SingleSpeed=\"COIL COOLING DX SINGLE SPEED 14 12KBTU/HR 10.0EER\", invalid\n   **   ~~~   ** ...Part Load Fraction Correlation Curve Name = DXCOOL-NECB2011-REF-COOLPLFFPLR 5 has out of range value.\n   **   ~~~   ** ...Curve maximum must be <= 1.0, curve max at PLR = 0.99 is 1.015\n   **   ~~~   ** ...Setting curve maximum to 1.0 and simulation continues.\n   ** Warning ** GetDXCoils: Coil:Cooling:DX:SingleSpeed=\"COIL COOLING DX SINGLE SPEED 11 13KBTU/HR 9.8EER\", invalid\n   **   ~~~   ** ...Part Load Fraction Correlation Curve Name = DXCOOL-NECB2011-REF-COOLPLFFPLR 2 has out of range value.\n   **   ~~~   ** ...Curve maximum must be <= 1.0, curve max at PLR = 0.99 is 1.015\n   **   ~~~   ** ...Setting curve maximum to 1.0 and simulation continues.\n   ** Warning ** GetDXCoils: Coil:Cooling:DX:SingleSpeed=\"COIL COOLING DX SINGLE SPEED 16 10KBTU/HR 10.3EER\", invalid\n   **   ~~~   ** ...Part Load Fraction Correlation Curve Name = DXCOOL-NECB2011-REF-COOLPLFFPLR 7 has out of range value.\n   **   ~~~   ** ...Curve maximum must be <= 1.0, curve max at PLR = 0.99 is 1.015\n   **   ~~~   ** ...Setting curve maximum to 1.0 and simulation continues.\n   ** Warning ** GetDXCoils: Coil:Cooling:DX:SingleSpeed=\"COIL COOLING DX SINGLE SPEED 19 10KBTU/HR 10.3EER\", invalid\n   **   ~~~   ** ...Part Load Fraction Correlation Curve Name = DXCOOL-NECB2011-REF-COOLPLFFPLR 10 has out of range value.\n   **   ~~~   ** ...Curve maximum must be <= 1.0, curve max at PLR = 0.99 is 1.015\n   **   ~~~   ** ...Setting curve maximum to 1.0 and simulation continues.\n   ** Warning ** GetDXCoils: Coil:Cooling:DX:SingleSpeed=\"COIL COOLING DX SINGLE SPEED 18 12KBTU/HR 9.9EER\", invalid\n   **   ~~~   ** ...Part Load Fraction Correlation Curve Name = DXCOOL-NECB2011-REF-COOLPLFFPLR 9 has out of range value.\n   **   ~~~   ** ...Curve maximum must be <= 1.0, curve max at PLR = 0.99 is 1.015\n   **   ~~~   ** ...Setting curve maximum to 1.0 and simulation continues.\n   ** Warning ** GetDXCoils: Coil:Cooling:DX:SingleSpeed=\"COIL COOLING DX SINGLE SPEED 17 14KBTU/HR 9.6EER\", invalid\n   **   ~~~   ** ...Part Load Fraction Correlation Curve Name = DXCOOL-NECB2011-REF-COOLPLFFPLR 8 has out of range value.\n   **   ~~~   ** ...Curve maximum must be <= 1.0, curve max at PLR = 0.99 is 1.015\n   **   ~~~   ** ...Setting curve maximum to 1.0 and simulation continues.\n   ** Warning ** GetDXCoils: Coil:Cooling:DX:SingleSpeed=\"COIL COOLING DX SINGLE SPEED 1 88KBTU/HR 9.7EER\", invalid\n   **   ~~~   ** ...Part Load Fraction Correlation Curve Name = DXCOOL-NECB2011-REF-COOLPLFFPLR has out of range value.\n   **   ~~~   ** ...Curve maximum must be <= 1.0, curve max at PLR = 0.99 is 1.015\n   **   ~~~   ** ...Setting curve maximum to 1.0 and simulation continues.\n   ** Warning ** GetDXCoils: Coil:Cooling:DX:SingleSpeed=\"COIL COOLING DX SINGLE SPEED 28 20KBTU/HR 14.0SEER\", invalid\n   **   ~~~   ** ...Part Load Fraction Correlation Curve Name = DXCOOL-NECB2011-REF-COOLPLFFPLR 20 has out of range value.\n   **   ~~~   ** ...Curve maximum must be <= 1.0, curve max at PLR = 0.99 is 1.015\n   **   ~~~   ** ...Setting curve maximum to 1.0 and simulation continues.\n   ************* Beginning Plant Sizing Calculations\n   ** Warning ** The Standard Ratings is calculated for Coil:Cooling:DX:SingleSpeed = COIL COOLING DX SINGLE SPEED 24 6KBTU/HR 11.0EER but not at the AHRI test condition due to curve out of bound.\n   **   ~~~   **  Review the Standard Ratings calculations in the Engineering Reference for this coil type. Also, use Output:Diagnostics, DisplayExtraWarnings for further guidance.\n   ** Warning ** The Standard Ratings is calculated for Coil:Cooling:DX:SingleSpeed = COIL COOLING DX SINGLE SPEED 22 5KBTU/HR 11.0EER but not at the AHRI test condition due to curve out of bound.\n   **   ~~~   **  Review the Standard Ratings calculations in the Engineering Reference for this coil type. Also, use Output:Diagnostics, DisplayExtraWarnings for further guidance.\n   ** Warning ** The Standard Ratings is calculated for Coil:Cooling:DX:SingleSpeed = COIL COOLING DX SINGLE SPEED 21 5KBTU/HR 11.0EER but not at the AHRI test condition due to curve out of bound.\n   **   ~~~   **  Review the Standard Ratings calculations in the Engineering Reference for this coil type. Also, use Output:Diagnostics, DisplayExtraWarnings for further guidance.\n   ** Warning ** The Standard Ratings is calculated for Coil:Cooling:DX:SingleSpeed = COIL COOLING DX SINGLE SPEED 23 9KBTU/HR 10.5EER but not at the AHRI test condition due to curve out of bound.\n   **   ~~~   **  Review the Standard Ratings calculations in the Engineering Reference for this coil type. Also, use Output:Diagnostics, DisplayExtraWarnings for further guidance.\n   ** Warning ** The Standard Ratings is calculated for Coil:Cooling:DX:SingleSpeed = COIL COOLING DX SINGLE SPEED 20 9KBTU/HR 10.6EER but not at the AHRI test condition due to curve out of bound.\n   **   ~~~   **  Review the Standard Ratings calculations in the Engineering Reference for this coil type. Also, use Output:Diagnostics, DisplayExtraWarnings for further guidance.\n   ** Warning ** The Standard Ratings is calculated for Coil:Cooling:DX:SingleSpeed = COIL COOLING DX SINGLE SPEED 25 7KBTU/HR 11.0EER but not at the AHRI test condition due to curve out of bound.\n   **   ~~~   **  Review the Standard Ratings calculations in the Engineering Reference for this coil type. Also, use Output:Diagnostics, DisplayExtraWarnings for further guidance.\n   ** Warning ** The Standard Ratings is calculated for Coil:Cooling:DX:SingleSpeed = COIL COOLING DX SINGLE SPEED 26 7KBTU/HR 11.0EER but not at the AHRI test condition due to curve out of bound.\n   **   ~~~   **  Review the Standard Ratings calculations in the Engineering Reference for this coil type. Also, use Output:Diagnostics, DisplayExtraWarnings for further guidance.\n   ** Warning ** The Standard Ratings is calculated for Coil:Cooling:DX:SingleSpeed = COIL COOLING DX SINGLE SPEED 27 10KBTU/HR 10.4EER but not at the AHRI test condition due to curve out of bound.\n   **   ~~~   **  Review the Standard Ratings calculations in the Engineering Reference for this coil type. Also, use Output:Diagnostics, DisplayExtraWarnings for further guidance.\n   ** Warning ** The Standard Ratings is calculated for Coil:Cooling:DX:SingleSpeed = COIL COOLING DX SINGLE SPEED 6 6KBTU/HR 11.0EER but not at the AHRI test condition due to curve out of bound.\n   **   ~~~   **  Review the Standard Ratings calculations in the Engineering Reference for this coil type. Also, use Output:Diagnostics, DisplayExtraWarnings for further guidance.\n   ** Warning ** The Standard Ratings is calculated for Coil:Cooling:DX:SingleSpeed = COIL COOLING DX SINGLE SPEED 4 5KBTU/HR 11.0EER but not at the AHRI test condition due to curve out of bound.\n   **   ~~~   **  Review the Standard Ratings calculations in the Engineering Reference for this coil type. Also, use Output:Diagnostics, DisplayExtraWarnings for further guidance.\n   ** Warning ** The Standard Ratings is calculated for Coil:Cooling:DX:SingleSpeed = COIL COOLING DX SINGLE SPEED 3 5KBTU/HR 11.0EER but not at the AHRI test condition due to curve out of bound.\n   **   ~~~   **  Review the Standard Ratings calculations in the Engineering Reference for this coil type. Also, use Output:Diagnostics, DisplayExtraWarnings for further guidance.\n   ** Warning ** The Standard Ratings is calculated for Coil:Cooling:DX:SingleSpeed = COIL COOLING DX SINGLE SPEED 2 10KBTU/HR 10.4EER but not at the AHRI test condition due to curve out of bound.\n   **   ~~~   **  Review the Standard Ratings calculations in the Engineering Reference for this coil type. Also, use Output:Diagnostics, DisplayExtraWarnings for further guidance.\n   ** Warning ** The Standard Ratings is calculated for Coil:Cooling:DX:SingleSpeed = COIL COOLING DX SINGLE SPEED 5 10KBTU/HR 10.3EER but not at the AHRI test condition due to curve out of bound.\n   **   ~~~   **  Review the Standard Ratings calculations in the Engineering Reference for this coil type. Also, use Output:Diagnostics, DisplayExtraWarnings for further guidance.\n   ** Warning ** The Standard Ratings is calculated for Coil:Cooling:DX:SingleSpeed = COIL COOLING DX SINGLE SPEED 7 7KBTU/HR 11.0EER but not at the AHRI test condition due to curve out of bound.\n   **   ~~~   **  Review the Standard Ratings calculations in the Engineering Reference for this coil type. Also, use Output:Diagnostics, DisplayExtraWarnings for further guidance.\n   ** Warning ** The Standard Ratings is calculated for Coil:Cooling:DX:SingleSpeed = COIL COOLING DX SINGLE SPEED 9 7KBTU/HR 10.9EER but not at the AHRI test condition due to curve out of bound.\n   **   ~~~   **  Review the Standard Ratings calculations in the Engineering Reference for this coil type. Also, use Output:Diagnostics, DisplayExtraWarnings for further guidance.\n   ** Warning ** The Standard Ratings is calculated for Coil:Cooling:DX:SingleSpeed = COIL COOLING DX SINGLE SPEED 8 10KBTU/HR 10.4EER but not at the AHRI test condition due to curve out of bound.\n   **   ~~~   **  Review the Standard Ratings calculations in the Engineering Reference for this coil type. Also, use Output:Diagnostics, DisplayExtraWarnings for further guidance.\n   ** Warning ** The Standard Ratings is calculated for Coil:Cooling:DX:SingleSpeed = COIL COOLING DX SINGLE SPEED 10 11KBTU/HR 10.1EER but not at the AHRI test condition due to curve out of bound.\n   **   ~~~   **  Review the Standard Ratings calculations in the Engineering Reference for this coil type. Also, use Output:Diagnostics, DisplayExtraWarnings for further guidance.\n   ** Warning ** The Standard Ratings is calculated for Coil:Cooling:DX:SingleSpeed = COIL COOLING DX SINGLE SPEED 15 10KBTU/HR 10.3EER but not at the AHRI test condition due to curve out of bound.\n   **   ~~~   **  Review the Standard Ratings calculations in the Engineering Reference for this coil type. Also, use Output:Diagnostics, DisplayExtraWarnings for further guidance.\n   ** Warning ** The Standard Ratings is calculated for Coil:Cooling:DX:SingleSpeed = COIL COOLING DX SINGLE SPEED 12 9KBTU/HR 10.6EER but not at the AHRI test condition due to curve out of bound.\n   **   ~~~   **  Review the Standard Ratings calculations in the Engineering Reference for this coil type. Also, use Output:Diagnostics, DisplayExtraWarnings for further guidance.\n   ** Warning ** The Standard Ratings is calculated for Coil:Cooling:DX:SingleSpeed = COIL COOLING DX SINGLE SPEED 13 9KBTU/HR 10.6EER but not at the AHRI test condition due to curve out of bound.\n   **   ~~~   **  Review the Standard Ratings calculations in the Engineering Reference for this coil type. Also, use Output:Diagnostics, DisplayExtraWarnings for further guidance.\n   ** Warning ** The Standard Ratings is calculated for Coil:Cooling:DX:SingleSpeed = COIL COOLING DX SINGLE SPEED 14 12KBTU/HR 10.0EER but not at the AHRI test condition due to curve out of bound.\n   **   ~~~   **  Review the Standard Ratings calculations in the Engineering Reference for this coil type. Also, use Output:Diagnostics, DisplayExtraWarnings for further guidance.\n   ** Warning ** The Standard Ratings is calculated for Coil:Cooling:DX:SingleSpeed = COIL COOLING DX SINGLE SPEED 11 13KBTU/HR 9.8EER but not at the AHRI test condition due to curve out of bound.\n   **   ~~~   **  Review the Standard Ratings calculations in the Engineering Reference for this coil type. Also, use Output:Diagnostics, DisplayExtraWarnings for further guidance.\n   ** Warning ** The Standard Ratings is calculated for Coil:Cooling:DX:SingleSpeed = COIL COOLING DX SINGLE SPEED 16 10KBTU/HR 10.3EER but not at the AHRI test condition due to curve out of bound.\n   **   ~~~   **  Review the Standard Ratings calculations in the Engineering Reference for this coil type. Also, use Output:Diagnostics, DisplayExtraWarnings for further guidance.\n   ** Warning ** The Standard Ratings is calculated for Coil:Cooling:DX:SingleSpeed = COIL COOLING DX SINGLE SPEED 19 10KBTU/HR 10.3EER but not at the AHRI test condition due to curve out of bound.\n   **   ~~~   **  Review the Standard Ratings calculations in the Engineering Reference for this coil type. Also, use Output:Diagnostics, DisplayExtraWarnings for further guidance.\n   ** Warning ** The Standard Ratings is calculated for Coil:Cooling:DX:SingleSpeed = COIL COOLING DX SINGLE SPEED 18 12KBTU/HR 9.9EER but not at the AHRI test condition due to curve out of bound.\n   **   ~~~   **  Review the Standard Ratings calculations in the Engineering Reference for this coil type. Also, use Output:Diagnostics, DisplayExtraWarnings for further guidance.\n   ** Warning ** The Standard Ratings is calculated for Coil:Cooling:DX:SingleSpeed = COIL COOLING DX SINGLE SPEED 17 14KBTU/HR 9.6EER but not at the AHRI test condition due to curve out of bound.\n   **   ~~~   **  Review the Standard Ratings calculations in the Engineering Reference for this coil type. Also, use Output:Diagnostics, DisplayExtraWarnings for further guidance.\n   ** Warning ** The Standard Ratings is calculated for Coil:Cooling:DX:SingleSpeed = COIL COOLING DX SINGLE SPEED 1 88KBTU/HR 9.7EER but not at the AHRI test condition due to curve out of bound.\n   **   ~~~   **  Review the Standard Ratings calculations in the Engineering Reference for this coil type. Also, use Output:Diagnostics, DisplayExtraWarnings for further guidance.\n   ** Warning ** The Standard Ratings is calculated for Coil:Cooling:DX:SingleSpeed = COIL COOLING DX SINGLE SPEED 28 20KBTU/HR 14.0SEER but not at the AHRI test condition due to curve out of bound.\n   **   ~~~   **  Review the Standard Ratings calculations in the Engineering Reference for this coil type. Also, use Output:Diagnostics, DisplayExtraWarnings for further guidance.\n   ** Warning ** Output:Meter: invalid Name=\"DISTRICTCOOLING:FACILITY\" - not found.\n   ** Warning ** Output:Meter: invalid Name=\"DISTRICTHEATING:FACILITY\" - not found.\n   ** Warning ** Output:Meter:MeterFileOnly requested for \"Electricity:Facility\" (TimeStep), already on \"Output:Meter\". Will report to both eplusout.eso and eplusout.mtr\n   ************* Testing Individual Branch Integrity\n   ************* All Branches passed integrity testing\n   ************* Testing Individual Supply Air Path Integrity\n   ************* All Supply Air Paths passed integrity testing\n   ************* Testing Individual Return Air Path Integrity\n   ************* All Return Air Paths passed integrity testing\n   ************* No node connection errors were found.\n   ************* Beginning Simulation\n   ** Warning ** CalcDoe2DXCoil: Coil:Cooling:DX:SingleSpeed \"COIL COOLING DX SINGLE SPEED 25 7KBTU/HR 11.0EER\" - Full load outlet air dry-bulb temperature < 2C. This indicates the possibility of coil frost/freeze. Outlet temperature = 1.61 C.\n   **   ~~~   **  ...Occurrence info = RUN PERIOD 1, 01/01 11:53 - 12:00\n   **   ~~~   ** ... Possible reasons for low outlet air dry-bulb temperatures are: This DX coil\n   **   ~~~   **    1) may have a low inlet air dry-bulb temperature. Inlet air temperature = 16.479 C.\n   **   ~~~   **    2) may have a low air flow rate per watt of cooling capacity. Check inputs.\n   **   ~~~   **    3) is used as part of a HX assisted cooling coil which uses a high sensible effectiveness. Check inputs.\n   ** Warning ** CalcDoe2DXCoil: Coil:Cooling:DX:SingleSpeed \"COIL COOLING DX SINGLE SPEED 26 7KBTU/HR 11.0EER\" - Full load outlet air dry-bulb temperature < 2C. This indicates the possibility of coil frost/freeze. Outlet temperature = 1.94 C.\n   **   ~~~   **  ...Occurrence info = RUN PERIOD 1, 01/01 11:53 - 12:00\n   **   ~~~   ** ... Possible reasons for low outlet air dry-bulb temperatures are: This DX coil\n   **   ~~~   **    1) may have a low inlet air dry-bulb temperature. Inlet air temperature = 16.775 C.\n   **   ~~~   **    2) may have a low air flow rate per watt of cooling capacity. Check inputs.\n   **   ~~~   **    3) is used as part of a HX assisted cooling coil which uses a high sensible effectiveness. Check inputs.\n   ** Warning ** CalcDoe2DXCoil: Coil:Cooling:DX:SingleSpeed \"COIL COOLING DX SINGLE SPEED 25 7KBTU/HR 11.0EER\" - Air-cooled condenser inlet dry-bulb temperature below 0 C. Outdoor dry-bulb temperature = -0.55\n   **   ~~~   **  ... Occurrence info = RUN PERIOD 1, 01/01 14:00 - 14:15\n   **   ~~~   ** ... Operation at low ambient temperatures may require special performance curves.\n   ** Warning ** CalcDoe2DXCoil: Coil:Cooling:DX:SingleSpeed \"COIL COOLING DX SINGLE SPEED 26 7KBTU/HR 11.0EER\" - Air-cooled condenser inlet dry-bulb temperature below 0 C. Outdoor dry-bulb temperature = -0.55\n   **   ~~~   **  ... Occurrence info = RUN PERIOD 1, 01/01 14:00 - 14:15\n   **   ~~~   ** ... Operation at low ambient temperatures may require special performance curves.\n   ** Warning ** CalcDoe2DXCoil: Coil:Cooling:DX:SingleSpeed \"COIL COOLING DX SINGLE SPEED 27 10KBTU/HR 10.4EER\" - Air-cooled condenser inlet dry-bulb temperature below 0 C. Outdoor dry-bulb temperature = -0.55\n   **   ~~~   **  ... Occurrence info = RUN PERIOD 1, 01/01 14:00 - 14:15\n   **   ~~~   ** ... Operation at low ambient temperatures may require special performance curves.\n   ** Warning ** CalcDoe2DXCoil: Coil:Cooling:DX:SingleSpeed \"COIL COOLING DX SINGLE SPEED 7 7KBTU/HR 11.0EER\" - Air-cooled condenser inlet dry-bulb temperature below 0 C. Outdoor dry-bulb temperature = -0.55\n   **   ~~~   **  ... Occurrence info = RUN PERIOD 1, 01/01 14:00 - 14:15\n   **   ~~~   ** ... Operation at low ambient temperatures may require special performance curves.\n   ** Warning ** CalcDoe2DXCoil: Coil:Cooling:DX:SingleSpeed \"COIL COOLING DX SINGLE SPEED 9 7KBTU/HR 10.9EER\" - Air-cooled condenser inlet dry-bulb temperature below 0 C. Outdoor dry-bulb temperature = -0.55\n   **   ~~~   **  ... Occurrence info = RUN PERIOD 1, 01/01 14:00 - 14:15\n   **   ~~~   ** ... Operation at low ambient temperatures may require special performance curves.\n   ** Warning ** CalcDoe2DXCoil: Coil:Cooling:DX:SingleSpeed \"COIL COOLING DX SINGLE SPEED 8 10KBTU/HR 10.4EER\" - Air-cooled condenser inlet dry-bulb temperature below 0 C. Outdoor dry-bulb temperature = -0.55\n   **   ~~~   **  ... Occurrence info = RUN PERIOD 1, 01/01 14:00 - 14:15\n   **   ~~~   ** ... Operation at low ambient temperatures may require special performance curves.\n   ** Warning ** CalcDoe2DXCoil: Coil:Cooling:DX:SingleSpeed \"COIL COOLING DX SINGLE SPEED 10 11KBTU/HR 10.1EER\" - Air-cooled condenser inlet dry-bulb temperature below 0 C. Outdoor dry-bulb temperature = -0.55\n   **   ~~~   **  ... Occurrence info = RUN PERIOD 1, 01/01 14:00 - 14:15\n   **   ~~~   ** ... Operation at low ambient temperatures may require special performance curves.\n   ** Warning ** CalcDoe2DXCoil: Coil:Cooling:DX:SingleSpeed \"COIL COOLING DX SINGLE SPEED 16 10KBTU/HR 10.3EER\" - Air-cooled condenser inlet dry-bulb temperature below 0 C. Outdoor dry-bulb temperature = -0.55\n   **   ~~~   **  ... Occurrence info = RUN PERIOD 1, 01/01 14:00 - 14:15\n   **   ~~~   ** ... Operation at low ambient temperatures may require special performance curves.\n   ** Warning ** CalcDoe2DXCoil: Coil:Cooling:DX:SingleSpeed \"COIL COOLING DX SINGLE SPEED 19 10KBTU/HR 10.3EER\" - Air-cooled condenser inlet dry-bulb temperature below 0 C. Outdoor dry-bulb temperature = -0.55\n   **   ~~~   **  ... Occurrence info = RUN PERIOD 1, 01/01 14:00 - 14:15\n   **   ~~~   ** ... Operation at low ambient temperatures may require special performance curves.\n   ** Warning ** CalcDoe2DXCoil: Coil:Cooling:DX:SingleSpeed \"COIL COOLING DX SINGLE SPEED 18 12KBTU/HR 9.9EER\" - Air-cooled condenser inlet dry-bulb temperature below 0 C. Outdoor dry-bulb temperature = -0.55\n   **   ~~~   **  ... Occurrence info = RUN PERIOD 1, 01/01 14:00 - 14:15\n   **   ~~~   ** ... Operation at low ambient temperatures may require special performance curves.\n   ** Warning ** CalcDoe2DXCoil: Coil:Cooling:DX:SingleSpeed \"COIL COOLING DX SINGLE SPEED 17 14KBTU/HR 9.6EER\" - Air-cooled condenser inlet dry-bulb temperature below 0 C. Outdoor dry-bulb temperature = -0.55\n   **   ~~~   **  ... Occurrence info = RUN PERIOD 1, 01/01 14:00 - 14:15\n   **   ~~~   ** ... Operation at low ambient temperatures may require special performance curves.\n   ** Warning ** CalcDoe2DXCoil: Coil:Cooling:DX:SingleSpeed \"COIL COOLING DX SINGLE SPEED 7 7KBTU/HR 11.0EER\" - Full load outlet air dry-bulb temperature < 2C. This indicates the possibility of coil frost/freeze. Outlet temperature = 1.91 C.\n   **   ~~~   **  ...Occurrence info = RUN PERIOD 1, 01/01 15:30 - 15:38\n   **   ~~~   ** ... Possible reasons for low outlet air dry-bulb temperatures are: This DX coil\n   **   ~~~   **    1) may have a low inlet air dry-bulb temperature. Inlet air temperature = 16.679 C.\n   **   ~~~   **    2) may have a low air flow rate per watt of cooling capacity. Check inputs.\n   **   ~~~   **    3) is used as part of a HX assisted cooling coil which uses a high sensible effectiveness. Check inputs.\n   ** Warning ** CalcDoe2DXCoil: Coil:Cooling:DX:SingleSpeed \"COIL COOLING DX SINGLE SPEED 9 7KBTU/HR 10.9EER\" - Full load outlet air dry-bulb temperature < 2C. This indicates the possibility of coil frost/freeze. Outlet temperature = 2.00 C.\n   **   ~~~   **  ...Occurrence info = RUN PERIOD 1, 01/01 15:45 - 15:52\n   **   ~~~   ** ... Possible reasons for low outlet air dry-bulb temperatures are: This DX coil\n   **   ~~~   **    1) may have a low inlet air dry-bulb temperature. Inlet air temperature = 16.693 C.\n   **   ~~~   **    2) may have a low air flow rate per watt of cooling capacity. Check inputs.\n   **   ~~~   **    3) is used as part of a HX assisted cooling coil which uses a high sensible effectiveness. Check inputs.\n   ** Warning ** CalcDoe2DXCoil: Coil:Cooling:DX:SingleSpeed \"COIL COOLING DX SINGLE SPEED 28 20KBTU/HR 14.0SEER\" - Full load outlet air dry-bulb temperature < 2C. This indicates the possibility of coil frost/freeze. Outlet temperature = -4.56 C.\n   **   ~~~   **  ...Occurrence info = RUN PERIOD 1, 01/04 13:15 - 13:30\n   **   ~~~   ** ... Possible reasons for low outlet air dry-bulb temperatures are: This DX coil\n   **   ~~~   **    1) may have a low inlet air dry-bulb temperature. Inlet air temperature = 11.735 C.\n   **   ~~~   **    2) may have a low air flow rate per watt of cooling capacity. Check inputs.\n   **   ~~~   **    3) is used as part of a HX assisted cooling coil which uses a high sensible effectiveness. Check inputs.\n   ** Warning ** CalcDoe2DXCoil: Coil:Cooling:DX:SingleSpeed \"COIL COOLING DX SINGLE SPEED 15 10KBTU/HR 10.3EER\" - Air-cooled condenser inlet dry-bulb temperature below 0 C. Outdoor dry-bulb temperature = -2.20\n   **   ~~~   **  ... Occurrence info = RUN PERIOD 1, 01/21 13:45 - 14:00\n   **   ~~~   ** ... Operation at low ambient temperatures may require special performance curves.\n   ** Warning ** CalcDoe2DXCoil: Coil:Cooling:DX:SingleSpeed \"COIL COOLING DX SINGLE SPEED 6 6KBTU/HR 11.0EER\" - Air-cooled condenser inlet dry-bulb temperature below 0 C. Outdoor dry-bulb temperature = -3.58\n   **   ~~~   **  ... Occurrence info = RUN PERIOD 1, 01/21 15:00 - 15:15\n   **   ~~~   ** ... Operation at low ambient temperatures may require special performance curves.\n   ** Warning ** CalcDoe2DXCoil: Coil:Cooling:DX:SingleSpeed \"COIL COOLING DX SINGLE SPEED 24 6KBTU/HR 11.0EER\" - Air-cooled condenser inlet dry-bulb temperature below 0 C. Outdoor dry-bulb temperature = -0.60\n   **   ~~~   **  ... Occurrence info = RUN PERIOD 1, 02/07 15:45 - 16:00\n   **   ~~~   ** ... Operation at low ambient temperatures may require special performance curves.\n   ** Warning ** CalcDoe2DXCoil: Coil:Cooling:DX:SingleSpeed \"COIL COOLING DX SINGLE SPEED 20 9KBTU/HR 10.6EER\" - Air-cooled condenser inlet dry-bulb temperature below 0 C. Outdoor dry-bulb temperature = -0.73\n   **   ~~~   **  ... Occurrence info = RUN PERIOD 1, 02/07 16:00 - 16:15\n   **   ~~~   ** ... Operation at low ambient temperatures may require special performance curves.\n   ** Warning ** CalcDoe2DXCoil: Coil:Cooling:DX:SingleSpeed \"COIL COOLING DX SINGLE SPEED 5 10KBTU/HR 10.3EER\" - Air-cooled condenser inlet dry-bulb temperature below 0 C. Outdoor dry-bulb temperature = -0.98\n   **   ~~~   **  ... Occurrence info = RUN PERIOD 1, 02/07 16:30 - 16:45\n   **   ~~~   ** ... Operation at low ambient temperatures may require special performance curves.\n   ** Warning ** CalcDoe2DXCoil: Coil:Cooling:DX:SingleSpeed \"COIL COOLING DX SINGLE SPEED 11 13KBTU/HR 9.8EER\" - Air-cooled condenser inlet dry-bulb temperature below 0 C. Outdoor dry-bulb temperature = -0.15\n   **   ~~~   **  ... Occurrence info = RUN PERIOD 1, 03/06 17:00 - 17:15\n   **   ~~~   ** ... Operation at low ambient temperatures may require special performance curves.\n   ** Warning ** CalcDoe2DXCoil: Coil:Cooling:DX:SingleSpeed \"COIL COOLING DX SINGLE SPEED 14 12KBTU/HR 10.0EER\" - Air-cooled condenser inlet dry-bulb temperature below 0 C. Outdoor dry-bulb temperature = -5.68\n   **   ~~~   **  ... Occurrence info = RUN PERIOD 1, 03/11 10:00 - 10:05\n   **   ~~~   ** ... Operation at low ambient temperatures may require special performance curves.\n   ** Warning ** CalcDoe2DXCoil: Coil:Cooling:DX:SingleSpeed \"COIL COOLING DX SINGLE SPEED 23 9KBTU/HR 10.5EER\" - Air-cooled condenser inlet dry-bulb temperature below 0 C. Outdoor dry-bulb temperature = -5.68\n   **   ~~~   **  ... Occurrence info = RUN PERIOD 1, 03/11 10:05 - 10:10\n   **   ~~~   ** ... Operation at low ambient temperatures may require special performance curves.\n   ** Warning ** CalcDoe2DXCoil: Coil:Cooling:DX:SingleSpeed \"COIL COOLING DX SINGLE SPEED 2 10KBTU/HR 10.4EER\" - Air-cooled condenser inlet dry-bulb temperature below 0 C. Outdoor dry-bulb temperature = -3.90\n   **   ~~~   **  ... Occurrence info = RUN PERIOD 1, 03/11 11:45 - 11:52\n   **   ~~~   ** ... Operation at low ambient temperatures may require special performance curves.\n   ** Warning ** CalcDoe2DXCoil: Coil:Cooling:DX:SingleSpeed \"COIL COOLING DX SINGLE SPEED 13 9KBTU/HR 10.6EER\" - Air-cooled condenser inlet dry-bulb temperature below 0 C. Outdoor dry-bulb temperature = -2.35\n   **   ~~~   **  ... Occurrence info = RUN PERIOD 1, 03/11 14:00 - 14:15\n   **   ~~~   ** ... Operation at low ambient temperatures may require special performance curves.\n   ** Warning ** CalcDoe2DXCoil: Coil:Cooling:DX:SingleSpeed \"COIL COOLING DX SINGLE SPEED 12 9KBTU/HR 10.6EER\" - Air-cooled condenser inlet dry-bulb temperature below 0 C. Outdoor dry-bulb temperature = -2.50\n   **   ~~~   **  ... Occurrence info = RUN PERIOD 1, 03/11 14:15 - 14:30\n   **   ~~~   ** ... Operation at low ambient temperatures may require special performance curves.\n   ** Warning ** CalcDoe2DXCoil: Coil:Cooling:DX:SingleSpeed \"COIL COOLING DX SINGLE SPEED 4 5KBTU/HR 11.0EER\" - Air-cooled condenser inlet dry-bulb temperature below 0 C. Outdoor dry-bulb temperature = -5.30\n   **   ~~~   **  ... Occurrence info = RUN PERIOD 1, 03/11 19:15 - 19:30\n   **   ~~~   ** ... Operation at low ambient temperatures may require special performance curves.\n   ** Warning ** CalcDoe2DXCoil: Coil:Cooling:DX:SingleSpeed \"COIL COOLING DX SINGLE SPEED 4 5KBTU/HR 11.0EER\" - Full load outlet air dry-bulb temperature < 2C. This indicates the possibility of coil frost/freeze. Outlet temperature = 1.01 C.\n   **   ~~~   **  ...Occurrence info = RUN PERIOD 1, 03/11 19:15 - 19:30\n   **   ~~~   ** ... Possible reasons for low outlet air dry-bulb temperatures are: This DX coil\n   **   ~~~   **    1) may have a low inlet air dry-bulb temperature. Inlet air temperature = 13.650 C.\n   **   ~~~   **    2) may have a low air flow rate per watt of cooling capacity. Check inputs.\n   **   ~~~   **    3) is used as part of a HX assisted cooling coil which uses a high sensible effectiveness. Check inputs.\n   ** Warning ** CalcDoe2DXCoil: Coil:Cooling:DX:SingleSpeed \"COIL COOLING DX SINGLE SPEED 3 5KBTU/HR 11.0EER\" - Air-cooled condenser inlet dry-bulb temperature below 0 C. Outdoor dry-bulb temperature = -5.30\n   **   ~~~   **  ... Occurrence info = RUN PERIOD 1, 03/11 19:15 - 19:30\n   **   ~~~   ** ... Operation at low ambient temperatures may require special performance curves.\n   ** Warning ** CalcDoe2DXCoil: Coil:Cooling:DX:SingleSpeed \"COIL COOLING DX SINGLE SPEED 3 5KBTU/HR 11.0EER\" - Full load outlet air dry-bulb temperature < 2C. This indicates the possibility of coil frost/freeze. Outlet temperature = 0.58 C.\n   **   ~~~   **  ...Occurrence info = RUN PERIOD 1, 03/11 19:15 - 19:30\n   **   ~~~   ** ... Possible reasons for low outlet air dry-bulb temperatures are: This DX coil\n   **   ~~~   **    1) may have a low inlet air dry-bulb temperature. Inlet air temperature = 13.269 C.\n   **   ~~~   **    2) may have a low air flow rate per watt of cooling capacity. Check inputs.\n   **   ~~~   **    3) is used as part of a HX assisted cooling coil which uses a high sensible effectiveness. Check inputs.\n   ** Warning ** CalcDoe2DXCoil: Coil:Cooling:DX:SingleSpeed \"COIL COOLING DX SINGLE SPEED 22 5KBTU/HR 11.0EER\" - Full load outlet air dry-bulb temperature < 2C. This indicates the possibility of coil frost/freeze. Outlet temperature = 1.81 C.\n   **   ~~~   **  ...Occurrence info = RUN PERIOD 1, 04/11 20:15 - 20:30\n   **   ~~~   ** ... Possible reasons for low outlet air dry-bulb temperatures are: This DX coil\n   **   ~~~   **    1) may have a low inlet air dry-bulb temperature. Inlet air temperature = 14.997 C.\n   **   ~~~   **    2) may have a low air flow rate per watt of cooling capacity. Check inputs.\n   **   ~~~   **    3) is used as part of a HX assisted cooling coil which uses a high sensible effectiveness. Check inputs.\n   ** Warning ** CalcDoe2DXCoil: Coil:Cooling:DX:SingleSpeed \"COIL COOLING DX SINGLE SPEED 1 88KBTU/HR 9.7EER\" - Full load outlet air dry-bulb temperature < 2C. This indicates the possibility of coil frost/freeze. Outlet temperature = 1.60 C.\n   **   ~~~   **  ...Occurrence info = RUN PERIOD 1, 04/25 12:30 - 12:45\n   **   ~~~   ** ... Possible reasons for low outlet air dry-bulb temperatures are: This DX coil\n   **   ~~~   **    1) may have a low inlet air dry-bulb temperature. Inlet air temperature = 18.750 C.\n   **   ~~~   **    2) may have a low air flow rate per watt of cooling capacity. Check inputs.\n   **   ~~~   **    3) is used as part of a HX assisted cooling coil which uses a high sensible effectiveness. Check inputs.\n   ** Warning ** CalcDoe2DXCoil: Coil:Cooling:DX:SingleSpeed \"COIL COOLING DX SINGLE SPEED 21 5KBTU/HR 11.0EER\" - Full load outlet air dry-bulb temperature < 2C. This indicates the possibility of coil frost/freeze. Outlet temperature = 1.96 C.\n   **   ~~~   **  ...Occurrence info = RUN PERIOD 1, 05/25 20:30 - 20:45\n   **   ~~~   ** ... Possible reasons for low outlet air dry-bulb temperatures are: This DX coil\n   **   ~~~   **    1) may have a low inlet air dry-bulb temperature. Inlet air temperature = 15.145 C.\n   **   ~~~   **    2) may have a low air flow rate per watt of cooling capacity. Check inputs.\n   **   ~~~   **    3) is used as part of a HX assisted cooling coil which uses a high sensible effectiveness. Check inputs.\n   ************* Simulation Error Summary *************\n   ************* There are 9 unused schedules in input.\n   ************* There are 9 unused week schedules in input.\n   ************* There are 17 unused day schedules in input.\n   ************* Use Output:Diagnostics,DisplayUnusedSchedules; to see them.\n   *************\n   ************* ===== Recurring Error Summary =====\n   ************* The following recurring error messages occurred.\n   *************\n   *************  ** Warning ** CalcDoe2DXCoil: Coil:Cooling:DX:SingleSpeed=\"COIL COOLING DX SINGLE SPEED 25 7KBTU/HR 11.0EER\" - Full load outlet temperature indicates a possibility of frost/freeze error continues. Outlet air temperature statistics follow:\n   *************  **   ~~~   **   This error occurred 1695 total times;\n   *************  **   ~~~   **   during Warmup 0 times;\n   *************  **   ~~~   **   during Sizing 0 times.\n   *************  **   ~~~   **   Max=1.997378  Min=-4.662008\n   *************\n   *************  ** Warning ** CalcDoe2DXCoil: Coil:Cooling:DX:SingleSpeed=\"COIL COOLING DX SINGLE SPEED 26 7KBTU/HR 11.0EER\" - Full load outlet temperature indicates a possibility of frost/freeze error continues. Outlet air temperature statistics follow:\n   *************  **   ~~~   **   This error occurred 1469 total times;\n   *************  **   ~~~   **   during Warmup 0 times;\n   *************  **   ~~~   **   during Sizing 0 times.\n   *************  **   ~~~   **   Max=1.997533  Min=-3.985596\n   *************\n   *************  ** Warning ** CalcDoe2DXCoil: Coil:Cooling:DX:SingleSpeed=\"COIL COOLING DX SINGLE SPEED 25 7KBTU/HR 11.0EER\" - Low condenser dry-bulb temperature error continues...\n   *************  **   ~~~   **   This error occurred 1526 total times;\n   *************  **   ~~~   **   during Warmup 0 times;\n   *************  **   ~~~   **   during Sizing 0 times.\n   *************  **   ~~~   **   Max=-0.15 [C]  Min=-19.45 [C]\n   *************\n   *************  ** Warning ** CalcDoe2DXCoil: Coil:Cooling:DX:SingleSpeed=\"COIL COOLING DX SINGLE SPEED 26 7KBTU/HR 11.0EER\" - Low condenser dry-bulb temperature error continues...\n   *************  **   ~~~   **   This error occurred 1490 total times;\n   *************  **   ~~~   **   during Warmup 0 times;\n   *************  **   ~~~   **   during Sizing 0 times.\n   *************  **   ~~~   **   Max=-0.15 [C]  Min=-19.575 [C]\n   *************\n   *************  ** Warning ** CalcDoe2DXCoil: Coil:Cooling:DX:SingleSpeed=\"COIL COOLING DX SINGLE SPEED 27 10KBTU/HR 10.4EER\" - Low condenser dry-bulb temperature error continues...\n   *************  **   ~~~   **   This error occurred 1335 total times;\n   *************  **   ~~~   **   during Warmup 0 times;\n   *************  **   ~~~   **   during Sizing 0 times.\n   *************  **   ~~~   **   Max=-0.15 [C]  Min=-19.125 [C]\n   *************\n   *************  ** Warning ** CalcDoe2DXCoil: Coil:Cooling:DX:SingleSpeed=\"COIL COOLING DX SINGLE SPEED 7 7KBTU/HR 11.0EER\" - Low condenser dry-bulb temperature error continues...\n   *************  **   ~~~   **   This error occurred 2662 total times;\n   *************  **   ~~~   **   during Warmup 0 times;\n   *************  **   ~~~   **   during Sizing 0 times.\n   *************  **   ~~~   **   Max=-0.15 [C]  Min=-21.95 [C]\n   *************\n   *************  ** Warning ** CalcDoe2DXCoil: Coil:Cooling:DX:SingleSpeed=\"COIL COOLING DX SINGLE SPEED 9 7KBTU/HR 10.9EER\" - Low condenser dry-bulb temperature error continues...\n   *************  **   ~~~   **   This error occurred 2612 total times;\n   *************  **   ~~~   **   during Warmup 0 times;\n   *************  **   ~~~   **   during Sizing 0 times.\n   *************  **   ~~~   **   Max=-0.15 [C]  Min=-21.7 [C]\n   *************\n   *************  ** Warning ** CalcDoe2DXCoil: Coil:Cooling:DX:SingleSpeed=\"COIL COOLING DX SINGLE SPEED 8 10KBTU/HR 10.4EER\" - Low condenser dry-bulb temperature error continues...\n   *************  **   ~~~   **   This error occurred 1669 total times;\n   *************  **   ~~~   **   during Warmup 0 times;\n   *************  **   ~~~   **   during Sizing 0 times.\n   *************  **   ~~~   **   Max=-0.15 [C]  Min=-20. [C]\n   *************\n   *************  ** Warning ** CalcDoe2DXCoil: Coil:Cooling:DX:SingleSpeed=\"COIL COOLING DX SINGLE SPEED 10 11KBTU/HR 10.1EER\" - Low condenser dry-bulb temperature error continues...\n   *************  **   ~~~   **   This error occurred 1635 total times;\n   *************  **   ~~~   **   during Warmup 0 times;\n   *************  **   ~~~   **   during Sizing 0 times.\n   *************  **   ~~~   **   Max=-0.15 [C]  Min=-20.55 [C]\n   *************\n   *************  ** Warning ** CalcDoe2DXCoil: Coil:Cooling:DX:SingleSpeed=\"COIL COOLING DX SINGLE SPEED 16 10KBTU/HR 10.3EER\" - Low condenser dry-bulb temperature error continues...\n   *************  **   ~~~   **   This error occurred 758 total times;\n   *************  **   ~~~   **   during Warmup 0 times;\n   *************  **   ~~~   **   during Sizing 0 times.\n   *************  **   ~~~   **   Max=-0.15 [C]  Min=-18.075 [C]\n   *************\n   *************  ** Warning ** CalcDoe2DXCoil: Coil:Cooling:DX:SingleSpeed=\"COIL COOLING DX SINGLE SPEED 19 10KBTU/HR 10.3EER\" - Low condenser dry-bulb temperature error continues...\n   *************  **   ~~~   **   This error occurred 781 total times;\n   *************  **   ~~~   **   during Warmup 0 times;\n   *************  **   ~~~   **   during Sizing 0 times.\n   *************  **   ~~~   **   Max=-0.15 [C]  Min=-18.35 [C]\n   *************\n   *************  ** Warning ** CalcDoe2DXCoil: Coil:Cooling:DX:SingleSpeed=\"COIL COOLING DX SINGLE SPEED 18 12KBTU/HR 9.9EER\" - Low condenser dry-bulb temperature error continues...\n   *************  **   ~~~   **   This error occurred 843 total times;\n   *************  **   ~~~   **   during Warmup 0 times;\n   *************  **   ~~~   **   during Sizing 0 times.\n   *************  **   ~~~   **   Max=-0.15 [C]  Min=-19.45 [C]\n   *************\n   *************  ** Warning ** CalcDoe2DXCoil: Coil:Cooling:DX:SingleSpeed=\"COIL COOLING DX SINGLE SPEED 17 14KBTU/HR 9.6EER\" - Low condenser dry-bulb temperature error continues...\n   *************  **   ~~~   **   This error occurred 714 total times;\n   *************  **   ~~~   **   during Warmup 0 times;\n   *************  **   ~~~   **   during Sizing 0 times.\n   *************  **   ~~~   **   Max=-0.15 [C]  Min=-17.25 [C]\n   *************\n   *************  ** Warning ** CalcDoe2DXCoil: Coil:Cooling:DX:SingleSpeed=\"COIL COOLING DX SINGLE SPEED 7 7KBTU/HR 11.0EER\" - Full load outlet temperature indicates a possibility of frost/freeze error continues. Outlet air temperature statistics follow:\n   *************  **   ~~~   **   This error occurred 1774 total times;\n   *************  **   ~~~   **   during Warmup 0 times;\n   *************  **   ~~~   **   during Sizing 0 times.\n   *************  **   ~~~   **   Max=1.99805  Min=-2.946565\n   *************\n   *************  ** Warning ** CalcDoe2DXCoil: Coil:Cooling:DX:SingleSpeed=\"COIL COOLING DX SINGLE SPEED 9 7KBTU/HR 10.9EER\" - Full load outlet temperature indicates a possibility of frost/freeze error continues. Outlet air temperature statistics follow:\n   *************  **   ~~~   **   This error occurred 1665 total times;\n   *************  **   ~~~   **   during Warmup 0 times;\n   *************  **   ~~~   **   during Sizing 0 times.\n   *************  **   ~~~   **   Max=1.999939  Min=-2.613279\n   *************\n   *************  ** Warning ** CalcDoe2DXCoil: Coil:Cooling:DX:SingleSpeed=\"COIL COOLING DX SINGLE SPEED 28 20KBTU/HR 14.0SEER\" - Full load outlet temperature indicates a possibility of frost/freeze error continues. Outlet air temperature statistics follow:\n   *************  **   ~~~   **   This error occurred 755 total times;\n   *************  **   ~~~   **   during Warmup 0 times;\n   *************  **   ~~~   **   during Sizing 0 times.\n   *************  **   ~~~   **   Max=1.998926  Min=-5.970961\n   *************\n   *************  ** Warning ** CalcDoe2DXCoil: Coil:Cooling:DX:SingleSpeed=\"COIL COOLING DX SINGLE SPEED 15 10KBTU/HR 10.3EER\" - Low condenser dry-bulb temperature error continues...\n   *************  **   ~~~   **   This error occurred 29 total times;\n   *************  **   ~~~   **   during Warmup 0 times;\n   *************  **   ~~~   **   during Sizing 0 times.\n   *************  **   ~~~   **   Max=-2.2 [C]  Min=-9. [C]\n   *************\n   *************  ** Warning ** CalcDoe2DXCoil: Coil:Cooling:DX:SingleSpeed=\"COIL COOLING DX SINGLE SPEED 6 6KBTU/HR 11.0EER\" - Low condenser dry-bulb temperature error continues...\n   *************  **   ~~~   **   This error occurred 632 total times;\n   *************  **   ~~~   **   during Warmup 0 times;\n   *************  **   ~~~   **   during Sizing 0 times.\n   *************  **   ~~~   **   Max=-0.15 [C]  Min=-15. [C]\n   *************\n   *************  ** Warning ** CalcDoe2DXCoil: Coil:Cooling:DX:SingleSpeed=\"COIL COOLING DX SINGLE SPEED 24 6KBTU/HR 11.0EER\" - Low condenser dry-bulb temperature error continues...\n   *************  **   ~~~   **   This error occurred 62 total times;\n   *************  **   ~~~   **   during Warmup 0 times;\n   *************  **   ~~~   **   during Sizing 0 times.\n   *************  **   ~~~   **   Max=-0.15 [C]  Min=-6.7 [C]\n   *************\n   *************  ** Warning ** CalcDoe2DXCoil: Coil:Cooling:DX:SingleSpeed=\"COIL COOLING DX SINGLE SPEED 20 9KBTU/HR 10.6EER\" - Low condenser dry-bulb temperature error continues...\n   *************  **   ~~~   **   This error occurred 69 total times;\n   *************  **   ~~~   **   during Warmup 0 times;\n   *************  **   ~~~   **   during Sizing 0 times.\n   *************  **   ~~~   **   Max=-0.15 [C]  Min=-7.35 [C]\n   *************\n   *************  ** Warning ** CalcDoe2DXCoil: Coil:Cooling:DX:SingleSpeed=\"COIL COOLING DX SINGLE SPEED 5 10KBTU/HR 10.3EER\" - Low condenser dry-bulb temperature error continues...\n   *************  **   ~~~   **   This error occurred 127 total times;\n   *************  **   ~~~   **   during Warmup 0 times;\n   *************  **   ~~~   **   during Sizing 0 times.\n   *************  **   ~~~   **   Max=-0.15 [C]  Min=-9.45 [C]\n   *************\n   *************  ** Warning ** CalcDoe2DXCoil: Coil:Cooling:DX:SingleSpeed=\"COIL COOLING DX SINGLE SPEED 11 13KBTU/HR 9.8EER\" - Low condenser dry-bulb temperature error continues...\n   *************  **   ~~~   **   This error occurred 27 total times;\n   *************  **   ~~~   **   during Warmup 0 times;\n   *************  **   ~~~   **   during Sizing 0 times.\n   *************  **   ~~~   **   Max=-0.15 [C]  Min=-5.3 [C]\n   *************\n   *************  ** Warning ** CalcDoe2DXCoil: Coil:Cooling:DX:SingleSpeed=\"COIL COOLING DX SINGLE SPEED 14 12KBTU/HR 10.0EER\" - Low condenser dry-bulb temperature error continues...\n   *************  **   ~~~   **   This error occurred 38 total times;\n   *************  **   ~~~   **   during Warmup 0 times;\n   *************  **   ~~~   **   during Sizing 0 times.\n   *************  **   ~~~   **   Max=-2.2 [C]  Min=-6.15 [C]\n   *************\n   *************  ** Warning ** CalcDoe2DXCoil: Coil:Cooling:DX:SingleSpeed=\"COIL COOLING DX SINGLE SPEED 23 9KBTU/HR 10.5EER\" - Low condenser dry-bulb temperature error continues...\n   *************  **   ~~~   **   This error occurred 28 total times;\n   *************  **   ~~~   **   during Warmup 0 times;\n   *************  **   ~~~   **   during Sizing 0 times.\n   *************  **   ~~~   **   Max=-0.55 [C]  Min=-5.675 [C]\n   *************\n   *************  ** Warning ** CalcDoe2DXCoil: Coil:Cooling:DX:SingleSpeed=\"COIL COOLING DX SINGLE SPEED 2 10KBTU/HR 10.4EER\" - Low condenser dry-bulb temperature error continues...\n   *************  **   ~~~   **   This error occurred 27 total times;\n   *************  **   ~~~   **   during Warmup 0 times;\n   *************  **   ~~~   **   during Sizing 0 times.\n   *************  **   ~~~   **   Max=-0.275 [C]  Min=-3.9 [C]\n   *************\n   *************  ** Warning ** CalcDoe2DXCoil: Coil:Cooling:DX:SingleSpeed=\"COIL COOLING DX SINGLE SPEED 13 9KBTU/HR 10.6EER\" - Low condenser dry-bulb temperature error continues...\n   *************  **   ~~~   **   This error occurred 8 total times;\n   *************  **   ~~~   **   during Warmup 0 times;\n   *************  **   ~~~   **   during Sizing 0 times.\n   *************  **   ~~~   **   Max=-2.35 [C]  Min=-2.8 [C]\n   *************\n   *************  ** Warning ** CalcDoe2DXCoil: Coil:Cooling:DX:SingleSpeed=\"COIL COOLING DX SINGLE SPEED 12 9KBTU/HR 10.6EER\" - Low condenser dry-bulb temperature error continues...\n   *************  **   ~~~   **   This error occurred 7 total times;\n   *************  **   ~~~   **   during Warmup 0 times;\n   *************  **   ~~~   **   during Sizing 0 times.\n   *************  **   ~~~   **   Max=-2.5 [C]  Min=-2.8 [C]\n   *************\n   *************  ** Warning ** CalcDoe2DXCoil: Coil:Cooling:DX:SingleSpeed=\"COIL COOLING DX SINGLE SPEED 4 5KBTU/HR 11.0EER\" - Low condenser dry-bulb temperature error continues...\n   *************  **   ~~~   **   This error occurred 30 total times;\n   *************  **   ~~~   **   during Warmup 0 times;\n   *************  **   ~~~   **   during Sizing 0 times.\n   *************  **   ~~~   **   Max=-0.275 [C]  Min=-6.1 [C]\n   *************\n   *************  ** Warning ** CalcDoe2DXCoil: Coil:Cooling:DX:SingleSpeed=\"COIL COOLING DX SINGLE SPEED 4 5KBTU/HR 11.0EER\" - Full load outlet temperature indicates a possibility of frost/freeze error continues. Outlet air temperature statistics follow:\n   *************  **   ~~~   **   This error occurred 43 total times;\n   *************  **   ~~~   **   during Warmup 0 times;\n   *************  **   ~~~   **   during Sizing 0 times.\n   *************  **   ~~~   **   Max=1.993311  Min=0.713208\n   *************\n   *************  ** Warning ** CalcDoe2DXCoil: Coil:Cooling:DX:SingleSpeed=\"COIL COOLING DX SINGLE SPEED 3 5KBTU/HR 11.0EER\" - Low condenser dry-bulb temperature error continues...\n   *************  **   ~~~   **   This error occurred 24 total times;\n   *************  **   ~~~   **   during Warmup 0 times;\n   *************  **   ~~~   **   during Sizing 0 times.\n   *************  **   ~~~   **   Max=-0.275 [C]  Min=-6.1 [C]\n   *************\n   *************  ** Warning ** CalcDoe2DXCoil: Coil:Cooling:DX:SingleSpeed=\"COIL COOLING DX SINGLE SPEED 3 5KBTU/HR 11.0EER\" - Full load outlet temperature indicates a possibility of frost/freeze error continues. Outlet air temperature statistics follow:\n   *************  **   ~~~   **   This error occurred 35 total times;\n   *************  **   ~~~   **   during Warmup 0 times;\n   *************  **   ~~~   **   during Sizing 0 times.\n   *************  **   ~~~   **   Max=1.980472  Min=0.272624\n   *************\n   *************  ** Warning ** CalcDoe2DXCoil: Coil:Cooling:DX:SingleSpeed=\"COIL COOLING DX SINGLE SPEED 22 5KBTU/HR 11.0EER\" - Full load outlet temperature indicates a possibility of frost/freeze error continues. Outlet air temperature statistics follow:\n   *************  **   ~~~   **   This error occurred 17 total times;\n   *************  **   ~~~   **   during Warmup 0 times;\n   *************  **   ~~~   **   during Sizing 0 times.\n   *************  **   ~~~   **   Max=1.992025  Min=1.145544\n   *************\n   *************  ** Warning ** CalcDoe2DXCoil: Coil:Cooling:DX:SingleSpeed=\"COIL COOLING DX SINGLE SPEED 1 88KBTU/HR 9.7EER\" - Full load outlet temperature indicates a possibility of frost/freeze error continues. Outlet air temperature statistics follow:\n   *************  **   ~~~   **   This error occurred 3 total times;\n   *************  **   ~~~   **   during Warmup 0 times;\n   *************  **   ~~~   **   during Sizing 0 times.\n   *************  **   ~~~   **   Max=1.846273  Min=1.482203\n   *************\n   *************  ** Warning ** CalcDoe2DXCoil: Coil:Cooling:DX:SingleSpeed=\"COIL COOLING DX SINGLE SPEED 21 5KBTU/HR 11.0EER\" - Full load outlet temperature indicates a possibility of frost/freeze error continues. Outlet air temperature statistics follow:\n   *************  **   ~~~   **   This error occurred 19 total times;\n   *************  **   ~~~   **   during Warmup 0 times;\n   *************  **   ~~~   **   during Sizing 0 times.\n   *************  **   ~~~   **   Max=1.9596  Min=1.511442\n   *************\n   *************\n   ************* ===== Final Error Summary =====\n   ************* The following error categories occurred.  Consid
[...]
rDWjTUFCq1IPdBrRpKCjV68FiA9o0dDOmmj3YakCbhoJSzR6stHlt2jIHaNNQUP2KgDYNBdWHH2jTUFB9+IE2DQXVh59o01hSrNuDzUa0aSwpVu/BciPaNJYUa/hgvxFtGrsrYx0frDiiTWNJsY4PtpzaNLVpatM+EapNex+1aWrT1KYNRm2a2rRVf5XatMXzV3xebdrjqE27zwu+pbUxu4A44ogjjjjiiCOOOOKII87ucTYmHZBGGmmkkUYaaaSRRhpppNkPzbeRHYgjjjjiiCOOOOKII4444sw/T23ax6hNu2vT2j60aecdaNPOX6ZNe/vRI9Y0knMI5RxDOadQzjmUcwnlXEM5t1DO4kf3KCjV6JaqdEt1uqVK3VKtbqlat1SvW6rYLdXsnmp2j93VqWb3VLP7qmY/r0dbRM3b0UBM+Ybm3Wggpjz382Y0EFOe+XkvGogpzzuwopGcUI/rNQaUaCQnVOV6hwEfGskJtbleYECGRu7BUJ/r7QVMaCQn1Od6dc1r0BYxwIJGcsrXAxxoJKc87sCARnLK4w78ZySnPO7EfoaCUo2uNxhRn6GgVKnrJUa8Zygo1et6jxHpGboZU82uVxkxnqGgVLPrbabuTN2ZurNPhOrO3kfdmbozdWeDUXem7mzVX6XubPH8FZ9Xd/Y46s7u84JvV23MCiCOOOKII4444ogjjjjiiLN7nI3JAqSRRhpppJFGGmmkkUYaafZD820kBeKII4444ogjjjjiiCOOOPPPU3f2MerO7rqzvg/d2WUHurPLF+rO3k4h3xkIOqSCjqmgUyronAq6pIKuqaBbKuiXn9uTpFi3W6zcLdbuFqt3i/W7xQreYg1vsYq3WMd7rOM9d3/HOt5jHe/rOr5Gg/aYRTxo8zn1WyImtPmc+hYgLrT5nPoGIDa0+Zz69CMfGghKNXqw3pASDQSlSj3YbciKBoJSvR4sNiRGAzdjqtmDrYbcaCAo1ezBSiN6tMcc5EcDQfUrQoY0EFQffuRIA0H14UeWNBBUH37mSSNJsW4PNhtTpZGkWL0Hy43Z0khSrOGD/caEaeSujHV8sOKYM40kxTo+2HJq09SmqU37RKg27X3UpqlNU5s2GLVpatNW/VVq0xbPX/F5tWmPozbtPi/4ltbG7ALiiCOOOOKII4444ogjjji7x9mYdEAaaaSRRhpppJFGGmmkkWY/NN9GdiCOOOKII4444ogjjjjiiDP/PLVpH6M27a5NO+xDm3bdgTbt+mXatPPPH4XOKm5SQYdU0DEVdEoFnVNBl1TQNRV0SwUtfn3PkmLdbrFyt1i7W6zeLdbvFit4izW8xSreYh3vsY733P0d63iPdbyv6/jz2rRl1rw2jeTUb2lem0Zy6ltgXptGcuobYF6bRnLq0w+0aSgo1ejBegPaNBSUKvVgtwFtGgpK9Xqw2IA2Dd2MqWYPthrQpqGgVLMHK21em7bMAdo0FFS/IqBNQ0H14QfaNBRUH36gTUNB9eEn2jSWFOv2YLMRbRpLitV7sNyINo0lxRo+2G9Em8buyljHByuOaNNYUqzjgy2nNk1tmtq0T4Rq095HbZraNLVpg1GbpjZt1V+lNm3x/BWfV5v2OGrT7vOCb2ltzC4gjjjiiCOOOOKII4444oize5yNSQekkUYaaaSRRhpppJFGGmn2Q/NtZAfiiCOOOOKII4444ogjjjjzz1Ob9jFq0+7atOM+tGm3HWjTbl+mTXv70SPWNJJzCOUcQzmnUM45lHMJ5VxDObdQzuJH9ygo1eiWqnRLdbqlSt1SrW6pWrdUr1uq2C3V7J5qdo/d1alm91Sz+6pmP69HW0TN29FATPmG5t1oIKY89/NmNBBTnvl5LxqIKc87sKKRnFCP6zUGlGgkJ1TleocBHxrJCbW5XmBAhkbuwVCf6+0FTGgkJ9TnenXNa9AWMcCCRnLK1wMcaCSnPO7AgEZyyuMO/GckpzzuxH6GglKNrjcYUZ+hoFSp6yVGvGcoKNXreo8R6Rm6GVPNrlcZMZ6hoFSz622m7kzdmbqzT4Tqzt5H3Zm6M3Vng1F3pu5s1V+l7mzx/BWfV3f2OOrO7vOCb1dtzAogjjjiiCOOOOKII4444oize5yNyQKkkUYaaaSRRhpppJFGGmn2Q/NtJAXiiCOOOOKII4444ogjjjjzz1N39jHqzu66s9MudGeXt+3rzv7K+HW6s7dTyHcGgg6poGMq6JQKOqeCLqmgayrolgr65ef2JCnW7RYrd4u1u8Xq3WL9brGCt1jDW6ziLdbxHut4z93fsY73WMf7uo6v0aA9ZhEP2nxO/ZaICW0+p74FiAttPqe+AYgNbT6nPv3IhwaCUo0erDekRANBqVIPdhuyooGgVK8Hiw2J0cDNmGr2YKshNxoISjV7sNKIHu0xB/nRQFD9ipAhDQTVhx850kBQffiRJQ0E1YefedJIUqzbg83GVGkkKVbvwXJjtjSSFGv4YL8xYRq5K2MdH6w45kwjSbGOD7ac2jS1aWrTPhGqTXsftWlq09SmDUZtmtq0VX+V2rTF81d8Xm3a46hNu88LvqW1MbuAOOKII4444ogjjjjiiCPO7nE2Jh2QRhpppJFGGmmkkUYaaaTZD823kR2II4444ogjjjjiiCOOOOLMP09t2seoTbtr08770Ka1HWjT2pdp084/fxQ6q7hJBR1SQcdU0CkVdE4FXVJB11TQLRW0+PU9S4p1u8XK3WLtbrF6t1i/W6zgLdbwFqt4i3W8xzrec/d3rOM91vG+ruPPa9OWWfPaNJJTv6V5bRrJqW+BeW0ayalvgHltGsmpTz/QpqGgVKMH6w1o01BQqtSD3Qa0aSgo1evBYgPaNHQzppo92GpAm4aCUs0erLR5bdoyB2jTUFD9ioA2DQXVhx9o01BQffiBNg0F1YefaNNYUqzbg81GtGksKVbvwXIj2jSWFGv4YL8RbRq7K2MdH6w4ok1jSbGOD7ac2jS1aWrTPhGqTXsftWlq09SmDUZtmtq0VX+V2rTF81d8Xm3a46hNu88LvqW1MbuAOOKII4444ogjjjjiiCPO7nE2Jh2QRhpppJFGGmmkkUYaaaTZD823kR2II4444ogjjjjiiCOOOOLMP09t2seoTbtr0y770Kb1HWjT+pdp095+9Ig1jeQcQjnHUM4plHMO5VxCOddQzi2Us/jRPQpKNbqlKt1SnW6pUrdUq1uq1i3V65Yqdks1u6ea3WN3darZPdXsvqrZz+vRFlHzdjQQU76heTcaiCnP/bwZDcSUZ37eiwZiyvMOrGgkJ9Tjeo0BJRrJCVW53mHAh0ZyQm2uFxiQoZF7MNTnensBExrJCfW5Xl3zGrRFDLCgkZzy9QAHGskpjzswoJGc8rgD/xnJKY87sZ+hoFSj6w1G1GcoKFXqeokR7xkKSvW63mNEeoZuxlSz61VGjGcoKNXsepupO1N3pu7sE6G6s/dRd6buTN3ZYNSdqTtb9VepO1s8f8Xn1Z09jrqz+7zg21UbswKII4444ogjjjjiiCOOOOLsHmdjsgBppJFGGmmkkUYaaaSRRpr90HwbSYE44ogjjjjiiCOOOOKII87889SdfYy6s7vu7LoP3dlhB7qzwxfqzt5OId8ZCDqkgo6poFMq6JwKuqSCrqmgWyrol5/bk6RYt1us3C3W7hard4v1u8UK3mINb7GKt1jHe6zjPXd/xzreYx3v6zq+RoP2mEU8aPM59VsiJrT5nPoWIC60+Zz6BiA2tPmc+vQjHxoISjV6sN6QEg0EpUo92G3IigaCUr0eLDYkRgM3Y6rZg62G3GggKNXswUojerTHHORHA0H1K0KGNBBUH37kSANB9eFHljQQVB9+5kkjSbFuDzYbU6WRpFi9B8uN2dJIUqzhg/3GhGnkrox1fLDimDONJMU6PthyatPUpqlN+0SoNu191KapTVObNhi1aWrTVv1VatMWz1/xebVpj6M27T4v+JbWxuwC4ogjjjjiiCOOOOKII444u8fZmHRAGmmkkUYaaaSRRhpppJFmPzTfRnYgjjjiiCOOOOKII4444ogz/zy1aR+jNu2uTbvtQ5t23IE27fhl2rTzzx+FzipuUkGHVNAxFXRKBZ1TQZdU0DUVdEsFLX59z5Ji3W6xcrdYu1us3i3W7xYreIs1vMUq3mId77GO99z9Het4j3W8r+v489q0Zda8No3k1G9pXptGcupbYF6bRnLqG2Bem0Zy6tMPtGkoKNXowXoD2jQUlCr1YLcBbRoKSvV6sNiANg3djKlmD7Ya0KahoFSzByttXpu2zAHaNBRUvyKgTUNB9eEH2jQUVB9+oE1DQfXhJ9o0lhTr9mCzEW0aS4rVe7DciDaNJcUaPthvRJvG7spYxwcrjmjTWFKs44MtpzZNbZratE+EatPeR22a2jS1aYNRm6Y2bdVfpTZt8fwVn1eb9jhq0+7zgm9pbcwuII444ogjjjjiiCOOOOKIs3ucjUkHpJFGGmmkkUYaaaSRRhpp9kPzbWQH4ogjjjjiiCOOOOKII444889Tm/YxatN+16ad9mFNO+3AmnbSmjYXpDXtj4O0pj2VpDVNa5rWNK1pWtO0pmlN05qmNe1v3oxa0/44SGvaHwZpTdOapjVNa1osSWvac0la02oYrWla034drWm/42tN+3W0pj0zWtPWfV5rmta0VX+V1rTF81d8Xmva42hNu88LvqS1MbmAOOKII4444ogjjjjiiCPO7nE25hyQRhpppJFGGmmkkUYaaaTZD823cR2II4444ogjjjjiiCOOOOLMP09r2sdoTbtb0972oU0770Cbdv4ybdrbjx6xppGcQyjnGMo5hXLOoZxLKOcayrmFchY/ukdBqUa3VKVbqtMtVeqWanVL1bqlet1SxW6pZvdUs3vsrk41u6ea3Vc1+3k92iJq3o4GYso3NO9GAzHluZ83o4GY8szPe9FATHnegRWN5IR6XK8xoEQjOaEq1zsM+NBITqjN9QIDMjRyD4b6XG8vYEIjOaE+16trXoO2iAEWNJJTvh7gQCM55XEHBjSSUx534D8jOeVxJ/YzFJRqdL3BiPoMBaVKXS8x4j1DQale13uMSM/QzZhqdr3KiPEMBaWaXW8zdWfqztSdfSJUd/Y+6s7Unak7G4y6M3Vnq/4qdWeL56/4vLqzx1F3dp8XfLtqY1YAccQRRxxxxBFHHHHEEUec3eNsTBYgjTTSSCONNNJII4000kizH5pvIykQRxxxxBFHHHHEEUccccSZf566s49Rd3bXnbV96M4uO9CdXb5Qd/Z2CvnOQNAhFXRMBZ1SQedU0CUVdE0F3VJBv/zcniTFut1i5W6xdrdYvVus3y1W8BZreItVvMU63mMd77n7O9bxHut4X9fxNRq0xyziQZvPqd8SMaHN59S3AHGhzefUNwCxoc3n1Kcf+dBAUKrRg/WGlGggKFXqwW5DVjQQlOr1YLEhMRq4GVPNHmw15EYDQalmD1Ya0aM95iA/GgiqXxEypIGg+vAjRxoIqg8/sqSBoPrwM08aSYp1e7DZmCqNJMXqPVhuzJZGkmINH+w3Jkwjd2Ws44MVx5xpJCnW8cGWU5umNk1t2idCtWnvozZNbZratMGoTVObtuqvUpu2eP6Kz6tNexy1afd5wbe0NmYXEEccccQRRxxxxBFHHHHE2T3OxqQD0kgjjTTSSCONNNJII400+6H5NrIDccQRRxxxxBFHHHHEEUec+eepTfsYtWl3bVrfhzbtugNt2vXLtGnnnz8KnVXcpIIOqaBjKuiUCjqngi6poGsq6JYKWvz6niXFut1i5W6xdrdYvVus3y1W8BZreItVvMU63mMd77n7O9bxHut4X9fx57Vpy6x5bRrJqd/SvDaN5NS3wLw2jeTUN8C8No3k1KcfaNNQUKrRg/UGtGkoKFXqwW4D2jQUlOr1YLEBbRq6GVPNHmw1oE1DQalmD1bavDZtmQO0aSiofkVAm4aC6sMPtGkoqD78QJuGgurDT7RpLCnW7cFmI9o0lhSr92C5EW0aS4o1fLDfiDaN3ZWxjg9WHNGmsaRYxwdbTm2a2jS1aZ8I1aa9j9o0tWlq0wajNk1t2qq/Sm3a4vkrPq827XHUpt3nBd/S2phdQBxxxBFHHHHEEUccccQRZ/c4G5MOSCONNNJII4000kgjjTTS7Ifm28gOxBFHHHHEEUccccQRRxxx5p+nNu1j1KbdtWmHfWjTbjvQpt2+TJv29qNHrGkk5xDKOYZyTqGccyjnEsq5hnJuoZzFj+5RUKrRLVXplup0S5W6pVrdUrVuqV63VLFbqtk91eweu6tTze6pZvdVzX5ej7aImrejgZjyDc270UBMee7nzWggpjzz8140EFOed2BFIzmhHtdrDCjRSE6oyvUOAz40khNqc73AgAyN3IOhPtfbC5jQSE6oz/XqmtegLWKABY3klK8HONBITnncgQGN5JTHHfjPSE553In9DAWlGl1vMKI+Q0GpUtdLjHjPUFCq1/UeI9IzdDOmml2vMmI8Q0GpZtfbTN2ZujN1Z58I1Z29j7ozdWfqzgaj7kzd2aq/St3Z4vkrPq/u7HHUnd3nBd+u2pgVQBxxxBFHHHHEEUccccQRZ/c4G5MFSCONNNJII4000kgjjTTS7Ifm20gKxBFHHHHEEUccccQRRxxx5p+n7uxj1J3ddWfHXejOrm/b1539lfHrdGdvp5DvDAQdUkHHVNApFXROBV1SQddU0C0V9MvP7UlSrNstVu4Wa3eL1bvF+t1iBW+xhrdYxVus4z3W8Z67v2Md77GO93UdX6NBe8wiHrT5nPotERPafE59CxAX2nxOfQMQG9p8Tn36kQ8NBKUaPVhvSIkGglKlHuw2ZEUDQaleDxYbEqOBmzHV7MFWQ240EJRq9mClET3aYw7yo4Gg+hUhQxoIqg8/cqSBoPrwI0saCKoPP/OkkaRYtwebjanSSFKs3oPlxmxpJCnW8MF+Y8I0clfGOj5YccyZRpJiHR9sObVpatPUpn0iVJv2PmrT1KapTRuM2jS1aav+KrVpi+ev+LzatMdRm3afF3xLa2N2AXHEEUccccQRRxxxxBFHnN3jbEw6II000kgjjTTSSCONNNJIsx+abyM7EEccccQRRxxxxBFHHHHEmX+e2rSPUZt216ad9qFNazvQprUv06adf/4odFZxkwo6pIKOqaBTKuicCrqkgq6poFsqaPHre5YU63aLlbvF2t1i9W6xfrdYwVus4S1W8RbreI91vOfu71jHe6zjfV3Hn9emLbPmtWkkp35L89o0klPfAvPaNJJT3wDz2jSSU59+oE1DQalGD9Yb0KahoFSpB7sNaNNQUKrXg8UGtGnoZkw1e7DVgDYNBaWaPVhp89q0ZQ7QpqGg+hUBbRoKqg8/0KahoPrwA20aCqoPP9GmsaRYtwebjWjTWFKs3oPlRrRpLCnW8MF+I9o0dlfGOj5YcUSbxpJiHR9sObVpatPUpn0iVJv2PmrT1KapTRuM2jS1aav+KrVpi+ev+LzatMdRm3afF3xLa2N2AXHEEUccccQRRxxxxBFHnN3jbEw6II000kgjjTTSSCONNNJIsx+abyM7EEccccQRRxxxxBFHHHHEmX+e2rSPUZt216ad96FN6zvQpvUv06a9/egRaxrJOYRyjqGcUyjnHMq5hHKuoZxbKGfxo3sUlGp0S1W6pTrdUqVuqVa3VK1bqtctVeyWanZPNbvH7upUs3uq2X1Vs5/Xoy2i5u1oIKZ8Q/NuNBBTnvt5MxqIKc/8vBcNxJTnHVjRSE6ox/UaA0o0khOqcr3DgA+N5ITaXC8wIEMj92Coz/X2AiY0khPqc7265jVoixhgQSM55esBDjSSUx53YEAjOeVxB/4zklMed2I/Q0GpRtcbjKjPUFCq1PUSI94zFJTqdb3HiPQM3YypZterjBjPUFCq2fU2U3em7kzd2SdCdWfvo+5M3Zm6s8GoO1N3tuqvUne2eP6Kz6s7exx1Z/d5wberNmYFEEccccQRRxxxxBFHHHHE2T3OxmQB0kgjjTTSSCONNNJII400+6H5NpICccQRRxxxxBFHHHHEEUec+eepO/sYdWd33dllH7qzww50Z4cv1J29nUK+MxB0SAUdU0GnVNA5FXRJBV1TQbdU0C8/tydJsW63WLlbrN0tVu8W63eLFbzFGt5iFW+xjvdYx3vu/o51vMc63td1fI0G7TGLeNDmc+q3RExo8zn1LUBcaPM59Q1AbGjzOfXpRz40EJRq9GC9ISUaCEqVerDbkBUNBKV6PVhsSIwGbsZUswdbDbnRQFCq2YOVRvRojznIjwaC6leEDGkgqD78yJEGgurDjyxpIKg+/MyTRpJi3R5sNqZKI0mxeg+WG7OlkaRYwwf7jQnTyF0Z6/hgxTFnGkmKdXyw5dSmqU1Tm/aJUG3a+6hNU5umNm0watPUpq36q9SmLZ6/4vNq0x5Hbdp9XvAtrY3ZBcQRRxxxxBFHHHHEEUcccXaPszHpgDTSSCONNNJII4000kgjzX5ovo3sQBxxxBFHHHHEEUccccQRZ/55atM+Rm3aXZt23Yc27bgDbdrxy7Rp558/Cp1V3KSCDqmgYyrolAo6p4IuqaBrKuiWClr8+p4lxbrdYuVusXa3WL1brN8tVvAWa3iLVbzFOt5jHe+5+zvW8R7reF/X8ee1acuseW0ayanf0rw2jeTUt8C8No3k1DfAvDaN5NSnH2jTUFCq0YP1BrRpKChV6sFuA9o0FJTq9WCxAW0auhlTzR5sNaBNQ0GpZg9W2rw2bZkDtGkoqH5FQJuGgurDD7RpKKg+/ECbhoLqw0+0aSwp1u3BZiPaNJYUq/dguRFtGkuKNXyw34g2jd2VsY4PVhzRprGkWMcHW05tmto0tWmfCNWmvY/aNLVpatMGozZNbdqqv0pt2uL5Kz6vNu1x1Kbd5wXf0tqYXUAcccQRRxxxxBFHHHHEEWf3OBuTDkgjjTTSSCONNNJII4000uyH5tvIDsQRRxxxxBFHHHHEEUccceafpzbtY9Sm3bVpt31o00470Kadvkyb9vajR6xpJOcQyjmGck6hnHMo5xLKuYZybqGcxY/uUVCq0S1V6ZbqdEuVuqVa3VK1bqlet1SxW6rZPdXsHrurU83uqWb3Vc1+Xo+2iJq3o4GY8g3Nu9FATHnu581oIKY88/NeNBBTnndgRSM5oR7Xawwo0UhOqMr1DgM+NJITanO9wIAMjdyDoT7X2wuY0EhOqM/16prXoC1igAWN5JSvBzjQSE553IEBjeSUxx34z0hOedyJ/QwFpRpdbzCiPkNBqVLXS4x4z1BQqtf1HiPSM3QzpppdrzJiPENBqWbX20zdmbozdWefCNWdvY+6M3Vn6s4Go+5M3dmqv0rd2eL5Kz6v7uxx1J3d5wXfrtqYFUAcccQRRxxxxBFHHHHEEWf3OBuTBUgjjTTSSCONNNJII4000uyH5ttICsQRRxxxxBFHHHHEEUccceafp+7sY9Sd/a47O+/Ddnbege3srO1M29kf/8he25m2M21n2s6eCdJ2pu1M25m2M21n2s60nWk7W7W4tJ1pO3sqSNvZHwdpO/vjIG1nfxyk7ayC0Xam7ezX0Xb2O762s19H29kzo+1s3ee1nWk7W/VXaTtbPH/F57WdPY62s/u84MtVG5MCiCOOOOKII4444ogjjjji7B5nY64AaaSRRhpppJFGGmmkkUaa/dB8G0eBOOKII4444ogjjjjiiCPO/PO0nX2MtrO77extH7qzyw50Z5cv1J29nUK+MxB0SAUdU0GnVNA5FXRJBV1TQbdU0C8/tydJsW63WLlbrN0tVu8W63eLFbzFGt5iFW+xjvdYx3vu/o51vMc63td1fI0G7TGLeNDmc+q3RExo8zn1LUBcaPM59Q1AbGjzOfXpRz40EJRq9GC9ISUaCEqVerDbkBUNBKV6PVhsSIwGbsZUswdbDbnRQFCq2YOVRvRojznIjwaC6leEDGkgqD78yJEGgurDjyxpIKg+/MyTRpJi3R5sNqZKI0mxeg+WG7OlkaRYwwf7jQnTyF0Z6/hgxTFnGkmKdXyw5dSmqU1Tm/aJUG3a+6hNU5umNm0watPUpq36q9SmLZ6/4vNq0x5Hbdp9XvAtrY3ZBcQRRxxxxBFHHHHEEUcccXaPszHpgDTSSCONNNJII4000kgjzX5ovo3sQBxxxBFHHHHEEUccccQRZ/55atM+Rm3aXZvW9qFNu+5Am3b9Mm3a+eePQmcVN6mgQyromAo6pYLOqaBLKuiaCrqlgha/vmdJsW63WLlbrN0tVu8W63eLFbzFGt5iFW+xjvdYx3vu/o51vMc63td1/Hlt2jJrXptGcuq3NK9NIzn1LTCvTSM59Q0wr00jOfXpB9o0FJRq9GC9AW0aCkqVerDbgDYNBaV6PVhsQJuGbsZUswdbDWjTUFCq2YOVNq9NW+YAbRoKql8R0KahoPrwA20aCqoPP9CmoaD68BNtGkuKdXuw2Yg2jSXF6j1YbkSbxpJiDR/sN6JNY3dlrOODFUe0aSwp1vHBllObpjZNbdonQrVp76M2TW2a2rTBqE1Tm7bqr1Kbtnj+is+rTXsctWn3ecG3tDZmFxBHHHHEEUccccQRRxxxxNk9zsakA9JII4000kgjjTTSSCONNPuh+TayA3HEEUccccQRRxxxxBFHnPnnqU37GLVpd21a34c27bYDbdrty7Rpbz96xJpGcg6hnGMo5xTKOYdyLqGcayjnFspZ/OgeBaUa3VKVbqlOt1SpW6rVLVXrlup1SxW7pZrdU83usbs61eyeanZf1ezn9WiLqHk7Gogp39C8Gw3ElOd+3owGYsozP+9FAzHleQdWNJIT6nG9xoASjeSEqlzvMOBDIzmhNtcLDMjQyD0Y6nO9vYAJjeSE+lyvrnkN2iIGWNBITvl6gAON5JTHHRjQSE553IH/jOSUx53Yz1BQqtH1BiPqMxSUKnW9xIj3DAWlel3vMSI9Qzdjqtn1KiPGMxSUana9zdSdqTtTd/aJUN3Z+6g7U3em7mww6s7Una36q9SdLZ6/4vPqzh5H3dl9XvDtqo1ZAcQRRxxxxBFHHHHEEUcccXaPszFZgDTSSCONNNJII4000kgjzX5ovo2kQBxxxBFHHHHEEUccccQRZ/556s4+Rt3ZXXd22IXu7Pa2fd3ZXxm/Tnf2dgr5zkDQIRV0TAWdUkHnVNAlFXRNBd1SQb/83J4kxbrdYuVusXa3WL1brN8tVvAWa3iLVbzFOt5jHe+5+zvW8R7reF/X8TUatMcs4kGbz6nfEjGhzefUtwBxoc3n1DcAsaHN59SnH/nQQFCq0YP1hpRoIChV6sFuQ1Y0EJTq9WCxITEauBlTzR5sNeRGA0GpZg9WGtGjPeYgPxoIql8RMqSBoPrwI0caCKoPP7KkgaD68DNPGkmKdXuw2ZgqjSTF6j1YbsyWRpJiDR/sNyZMI3dlrOODFcecaSQp1vHBllObpjZNbdonQrVp76M2TW2a2rTBqE1Tm7bqr1Kbtnj+is+rTXsctWn3ecG3tDZmFxBHHHHEEUccccQRRxxxxNk9zsakA9JII4000kgjjTTSSCONNPuh+TayA3HEEUccccQRRxxxxBFHnPnnqU37GLVpd23acR/atLYDbVr7Mm3a+eePQmcVN6mgQyromAo6pYLOqaBLKuiaCrqlgha/vmdJsW63WLlbrN0tVu8W63eLFbzFGt5iFW+xjvdYx3vu/o51vMc63td1/Hlt2jJrXptGcuq3NK9NIzn1LTCvTSM59Q0wr00jOfXpB9o0FJRq9GC9AW0aCkqVerDbgDYNBaV6PVhsQJuGbsZUswdbDWjTUFCq2YOVNq9NW+YAbRoKql8R0KahoPrwA20aCqoPP9CmoaD68BNtGkuKdXuw2Yg2jSXF6j1YbkSbxpJiDR/sN6JNY3dlrOODFUe0aSwp1vHBllObpjZNbdonQrVp76M2TW2a2rTBqE1Tm7bqr1Kbtnj+is+rTXsctWn3ecG3tDZmFxBHHHHEEUccccQRRxxxxNk9zsakA9JII4000kgjjTTSSCONNPuh+TayA3HEEUccccQRRxxxxBFHnPnnqU37GLVpd23aaR/atL4DbVr/Mm3a248esaaRnEMo5xjKOYVyzqGcSyjnGsq5hXIWP7pHQalGt1SlW6rTLVXqlmp1S9W6pXrdUsVuqWb3VLN77K5ONbunmt1XNft5Pdoiat6OBmLKNzTvRgMx5bmfN6OBmPLMz3vRQEx53oEVjeSEelyvMaBEIzmhKtc7DPjQSE6ozfUCAzI0cg+G+lxvL2BCIzmhPtera16DtogBFjSSU74e4EAjOeVxBwY0klMed+A/IznlcSf2MxSUanS9wYj6DAWlSl0vMeI9Q0GpXtd7jEjP0M2Yana9yojxDAWlml1vM3Vn6s7UnX0iVHf2PurO1J2pOxuMujN1Z6v+KnVni+ev+Ly6s8dRd3afF3y7amNWAHHEEUccccQRRxxxxBFHnN3jbEwWII000kgjjTTSSCONNNJIsx+abyMpEEccccQRRxxxxBFHHHHEmX+eurOPUXd2152d96E7O+xAd3b4Qt3Z2ynkOwNBh1TQMRV0SgWdU0GXVNA1FXRLBf3yc3uSFOt2i5W7xdrdYvVusX63WMFbrOEtVvEW63iPdbzn7u9Yx3us431dx9do0B6ziAdtPqd+S8SENp9T3wLEhTafU98AxIY2n1OffuRDA0GpRg/WG1KigaBUqQe7DVnRQFCq14PFhsRo4GZMNXuw1ZAbDQSlmj1YaUSP9piD/GggqH5FyJAGgurDjxxpIKg+/MiSBoLqw888aSQp1u3BZmOqNJIUq/dguTFbGkmKNXyw35gwjdyVsY4PVhxzppGkWMcHW05tmto0tWmfCNWmvY/aNLVpatMGozZNbdqqv0pt2uL5Kz6vNu1x1Kbd5wXf0tqYXUAcccQRRxxxxBFHHHHEEWf3OBuTDkgjjTTSSCONNNJII4000uyH5tvIDsQRRxxxxBFHHHHEEUccceafpzbtY9Sm3bVpl31o04470KYdv0ybdv75o9BZxU0q6JAKOqaCTqmgcyrokgq6poJuqaDFr+9ZUqzbLVbuFmt3i9W7xfrdYgVvsYa3WMVbrOM91vGeu79jHe+xjvd1HX9em7bMmtemkZz6Lc1r00hOfQvMa9NITn0DzGvTSE59+oE2DQWlGj1Yb0CbhoJSpR7sNqBNQ0GpXg8WG9CmoZsx1ezBVgPaNBSUavZgpc1r05Y5QJuGgupXBLRpKKg+/ECbhoLqww+0aSioPvxEm8aSYt0ebDaiTWNJsXoPlhvRprGkWMMH+41o09hdGev4YMURbRpLinV8sOXUpqlNU5v2iVBt2vuoTVObpjZtMGrT1Kat+qvUpi2ev+LzatMeR23afV7wLa2N2QXEEUccccQRRxxxxBFHHHF2j7Mx6YA00kgjjTTSSCONNNJII81+aL6N7EAcccQRRxxxxBFHHHHEEWf+eWrTPkZt2l2bdt2HNu20A23a6cu0aW8/esSaRnIOoZxjKOcUyjmHci6hnGso5xbKWfzoHgWlGt1SlW6pTrdUqVuq1S1V65bqdUsVu6Wa3VPN7rG7OtXsnmp2X9Xs5/Voi6h5OxqIKd/QvBsNxJTnft6MBmLKMz/vRQMx5XkHVjSSE+pxvcaAEo3khKpc7zDgQyM5oTbXCwzI0Mg9GOpzvb2ACY3khPpcr655DdoiBljQSE75eoADjeSUxx0Y0EhOedyB/4zklMed2M9QUKrR9QYj6jMUlCp1vcSI9wwFpXpd7zEiPUM3Y6rZ9SojxjMUlGp2vc3Unak7U3f2iVDd2fuoO1N3pu5sMOrO1J2t+qvUnS2ev+Lz6s4eR93ZfV7w7aqNWQHEEUccccQRRxxxxBFHHHF2j7MxWYA00kgjjTTSSCONNNJII81+aL6NpEAcccQRRxxxxBFHHHHEEWf+eerOPkbd2V13dtuH7uy8A93Z+Qt1Z2+nkO8MBB1SQcdU0CkVdE4FXVJB11TQLRX0y8/tSVKs2y1W7hZrd4vVu8X63WIFb7GGt1jFW6zjPdbxnru/Yx3vsY73dR1fo0F7zCIetPmc+i0RE9p8Tn0LEBfafE59AxAb2nxOffqRDw0EpRo9WG9IiQaCUqUe7DZkRQNBqV4PFhsSo4GbMdXswVZDbjQQlGr2YKURPdpjDvKjgaD6FSFDGgiqDz9ypIGg+vAjSxoIqg8/86SRpFi3B5uNqdJIUqzeg+XGbGkkKdbwwX5jwjRyV8Y6PlhxzJlGkmIdH2w5tWlq09SmfSJUm/Y+atPUpqlNG4zaNLVpq/4qtWmL56/4vNq0x1Gbdp8XfEtrY3YBccQRRxxxxBFHHHHEEUec3eNsTDogjTTSSCONNNJII4000kizH5pvIzsQRxxxxBFHHHHEEUccccSZf57atI9Rm/a7Nu2yD2vaZQfWtIvWtLkgrWl/HKQ17akkrWla07SmaU3TmqY1TWua1jStaX/zZtSa9sdBWtP+MEhrmtY0rWla07SmPZWkNW00WtP+9jzzf5/WmjaO1pr2O77WtF9Ha9ozozVt3ee1pmlNW/VXaU1bPH/F57WmPY7WtPu84EtaG5MLiCOOOOKII4444ogjjjji7B5nY84BaaSRRhpppJFGGmmkkUaa/dB8G9eBOOKII4444ogjjjjiiCPO/PO0pn2M1rS7Ne1tH9q06w60adcv06adf/4odFZxkwo6pIKOqaBTKuicCrqkgq6poFsqaPHre5YU63aLlbvF2t1i9W6xfrdYwVus4S1W8RbreI91vOfu71jHe6zjfV3Hn9emLbPmtWkkp35L89o0klPfAvPaNJJT3wDz2jSSU59+oE1DQalGD9Yb0KahoFSpB7sNaNNQUKrXg8UGtGnoZkw1e7DVgDYNBaWaPVhp89q0ZQ7QpqGg+hUBbRoKqg8/0KahoPrwA20aCqoPP9GmsaRYtwebjWjTWFKs3oPlRrRpLCnW8MF+I9o0dlfGOj5YcUSbxpJiHR9sObVpatPUpn0iVJv2PmrT1KapTRuM2jS1aav+KrVpi+ev+LzatMdRm3afF3xLa2N2AXHEEUccccQRRxxxxBFHnN3jbEw6II000kgjjTTSSCONNNJIsx+abyM7EEccccQRRxxxxBFHHHHEmX+e2rSPUZt216a1fWjTbjvQpt2+TJv29qNHrGkk5xDKOYZyTqGccyjnEsq5hnJuoZzFj+5RUKrRLVXplup0S5W6pVrdUrVuqV63VLFbqtk91eweu6tTze6pZvdVzX5ej7aImrejgZjyDc270UBMee7nzWggpjzz8140EFOed2BFIzmhHtdrDCjRSE6oyvUOAz40khNqc73AgAyN3IOhPtfbC5jQSE6oz/XqmtegLWKABY3klK8HONBITnncgQGN5JTHHfjPSE553In9DAWlGl1vMKI+Q0GpUtdLjHjPUFCq1/UeI9IzdDOmml2vMmI8Q0GpZtfbTN2ZujN1Z58I1Z29j7ozdWfqzgaj7kzd2aq/St3Z4vkrPq/u7HHUnd3nBd+u2pgVQBxxxBFHHHHEEUccccQRZ/c4G5MFSCONNNJII4000kgjjTTS7Ifm20gKxBFHHHHEEUccccQRRxxx5p+n7uxj1J3ddWd9F7qz9va2fd/ZO+TXCc/eTiHjGQg6pIKOqaBTKuicCrqkgq6poFsq6Jcf3JOkWLdbrNwt1u4Wq3eL9bvFCt5iDW+xirdYx3us4z13f8c63mMd7+s6vkaE9phFTGjzOfVbIi60+Zz6FiA2tPmc+gYgPrT5nPr0IyMaCEo1erDekBQNBKVKPdhtyIsGglK9Hiw2pEYDN2Oq2YOthuxoICjV7MFKI4K0xxxkSANB9StCjjQQVB9+ZEkDQfXhR540EFQffmZKI0mxbg82G5OlkaRYvQfLjfnSSFKs4YP9xpRp5K6MdXyw4pg1jSTFOj7YcorTFKcpTvtEqDjtfRSnKU5TnDYYxWmK01b9VYrTFs9f8XnFaY+jOO0+L/ie1sb8AuKII4444ogjjjjiiCOOOLvH2Zh2QBpppJFGGmmkkUYaaaSRZj8030Z3II444ogjjjjiiCOOOOKIM/88xWkfozjtLk477ESc1vYgTmtfJk47//xZ6KzkJhV0SAUdU0GnVNA5FXRJBV1TQbdU0OL39ywp1u0WK3eLtbvF6t1i/W6xgrdYw1us4i3W8R7reM/d37GO91jH+7qOPy9OW2bNi9NITv2W5sVpJKe+BebFaSSnvgHmxWkkpz79QJyGglKNHqw3IE5DQalSD3YbEKehoFSvB4sNiNPQzZhq9mCrAXEaCko1e7DS5sVpyxwgTkNB9SsC4jQUVB9+IE5DQfXhB+I0FFQffiJOY0mxbg82GxGnsaRYvQfLjYjTWFKs4YP9RsRp7K6MdXyw4og4jSXFOj7YcorTFKcpTvtEqDjtfRSnKU5TnDYYxWmK01b9VYrTFs9f8XnFaY+jOO0+L/ie1sb8AuKII4444ogjjjjiiCOOOLvH2Zh2QBpppJFGGmmkkUYaaaSRZj8030Z3II444ogjjjjiiCOOOOKIM/88xWkfozjtLk477kSc1vcgTuuK0+aCFKf9cZDitKeSFKcpTlOcpjhNcZriNMVpitMUp/3Nm1Fx2h8HKU77wyDFaYrTFKcpToslKU57LklxWg2jOE1x2q+jOO13fMVpv47itGdGcdq6zytOU5y26q9SnLZ4/orPK057HMVp93nB97Q25hcQRxxxxBFHHHHEEUccccTZPc7GtAPSSCONNNJII4000kgjjTT7ofk2ugNxxBFHHHHEEUccccQRR5z55ylO+xjFab+L06478aYd9uBNO3yZN+3tR49o00jOIZRzDOWcQjnnUM4llHMN5dxCOYtf3aOgVKNbqtIt1emWKnVLtbqlat1SvW6pYrdUs3uq2T12V6ea3VPN7qua/bwfbRE1r0cDMeUbmpejgZjy3M+r0UBMeebnxWggpjzvQItGckI9rtcYcKKRnFCV6x0GhGgkJ9TmeoEBGxq5B0N9rrcXUKGRnFCf69U170FbxAANGskpXw+QoJGc8rgDBRrJKY87EKCRnPK4E/0ZCko1ut5gxH2GglKlrpcYEZ+hoFSv6z1GrGfoZkw1u15lRHmGglLNrreZvjN9Z/rOPhHqO3sffWf6zvSdDUbfmb6zVX+VvrPF81d8Xt/Z4+g7u88Lvl61MS2AOOKII4444ogjjjjiiCPO7nE2ZguQRhpppJFGGmmkkUYaaaTZD823sRSII4444ogjjjjiiCOOOOLMP0/f2cfoO/vdd3bbie/suAff2fHLfGft+Pbj7WHaMaI/C8YeXhN7fE3s6TWx59fEXl4Te31N7O01sYtf+ydzX3TO2osOWnvRSWsvOmrtRWetveiwtRedtvai49ZedN76i85bf9Vee9F56y86b52ct+e9cqPkec1cLvXZtzsvoculPnuTzSvqcqnP3mLzArtc6rM3GNDbBWNfc7qe/ucCcOEFY19zwJ7+twIQ5wVjX3PGnv6HArDsBbfCa07Z0/9KAEq+YOxrTtnT/0SY9/eNUoHOLxj77KsFsr9g7LMXGFABBmOfvcCAKDAY++wFRjSCydwXnbOn/6VAnIPJ3Bcdtaf/sUAEhcncF522p/+9QGyGyT3xovP29D8ZiPowmfui8/b0vxr0JOpJ1JP4iVBP4vvoSdSTqCdxMHoS9SSu+qv0JC6ev+LzehIfR0/ifV7wtcyN6UTEEUccccQRRxxxxBFHHHF2j7Mxy4g00kgjjTTSSCONNNJII81+aL6N3UQcccQRRxxxxBFHHHHEEWf+ef8dPIn/z2//+F9++8vf/8t//ctvf/c//rv/SW3itrSJv/3lv/3pH377u//379+b93/++c//5e/e/z/s/XvOx7d/txOF4mkPCsXTlykUz7cft4e53iIGxVzq4SWpx5eknl6Sen5J6uUlqdeXpN5ekroQHARjX3O62muOV3vN+WqvOWDtNSesveaItdecsfaaQ9Zec8r6a05Zf9EOe80p6685ZR2csudViYPgeVNiLPTJNzvvSYyFPnl3zVsSY6FP3lvzjsRY6JN3FjAk5lJfcqae/WcB0CPmUl9yrJ79NwFwI+ZSX3Kynv0HARAj5nbAS87Ws/8aAFbEXOpLztaz/xSYVyIOQoERMZf65GsFPsRc6pNXFrAh5lKfvLKACzGX+uSVRUyIwdjXnK5n/0VANIjB2NccsGf/UUAciMHY15yxZ/9dQASIwa3wmlP27D8NiP0wGPuaU/bsvw5UH6o+VH34iVD14fuoPlR9qPpwMKoPVR+u+qtUHy6ev+Lzqg8fR/XhfV7wTcuNGULEEUccccQRRxxxxBFHHHF2j7MxcYg00kgjjTTSSCONNNJII81+aL6NsEQcccQRRxxxxBFHHHHEEWf+eaoP//Z8W/XhvykP/4/ffv6P//Uf//2ffvunf/k3+eH//Q//6bf/8F//+v7/57+77EaCeN6DBPH8ZRLEnz89nZUwhXIOoZxjKOcUyjmHci6hnGso5xbKWdgFUFCq0S1V6ZbqdEuVuqVa3VK1bqlet1SxW6rZPdXsHrurU83uqWb3Vc1+Xtq3iJrX9IGY8g3Nq/hATHnu53V7IKY88/NKPRBTnnegzSM5oR7XawzI8EhOqMr1DgOKO5ITanO9wIC4jtyDoT7X2wvo6EhOqM/16pqXzC1igFaO5JSvB6jjSE553IEejuSUxx0o4EhOedyJ5g0FpRpdbzAib0NBqVLXS4wo2VBQqtf1HiOiNXQzpppdrzKiT0NBqWbX20wp2i6kaP5n/7P/2f/sf/Y/+5/9z/5n/7P/2f/sf/Y/+5/9z/7nLf3nf/3x5//221/+8qf/8Nv/9ffv/4eq9uNNKf7DX6IU/z5K8VeNUnyl+CtGKf6voxT/11GKv3KU4ivF/5ujFF8cccQRRxxxxBFHHHHEEUecPSglpZFGGmmkkUYaaaSRRhpp9kPzbVSW4ogjjjjiiCOOOOKII44488/77yDF/9/+9I+//dM//+nP//Sff/vnf1aJvy0l/p//8v/93f/+H//jn/7hT7/90z/8612E/7UK/I9P//JfHv/fv//v//Y/7+kf/8v9f/z7P/+Hf33/n//pX/7xP/8v/8P/D+6G444="
               },
               {
                  "name" : "annual_peak_electric_demand",
                  "units" : "kW",
                  "value" : 62.712629999999997
               },
               {
                  "name" : "first_year_capital_cost",
                  "units" : "$",
                  "value" : 0
               },
               {
                  "name" : "annual_utility_cost",
                  "units" : "$",
                  "value" : 29460.16
               },
               {
                  "name" : "total_lifecycle_cost",
                  "units" : "$",
                  "value" : 505818.96000000002
               }
            ],
            "step_warnings" : []
         }
      }
   ],
   "updated_at" : "20170710T183513Z",
   "weather_file" : "USA_CO_Denver.Intl.AP.725650_TMY3.epw"
}
