{
   "completed_at" : "20170710T194115Z",
   "completed_status" : "Success",
   "created_at" : "2017-07-10 19:26:17 +0000",
   "current_step" : 5,
   "description" : "",
   "eplusout_err" : "Program Version,EnergyPlus, Version 8.7.0-78a111df4a, YMD=2017.07.10 19:36,IDD_Version 8.7.0\n   ************* IDF Context for following error/warning message:\n   ************* Note -- lines truncated at 300 characters, if necessary...\n   *************      5 Building,\n   ************* indicated Name=NECB 2011-SecondarySchool-NECB HDD Method-CAN_MB_Brandon.711400_CWEC.epw created: 2017-07-10 19:26:24 +0000\n   ************* Only last 1 lines before error line shown.....\n   *************      6   NECB 2011-SecondarySchool-NECB HDD Method-CAN_MB_Brandon.711400_CWEC.epw created: 2017-07-10 19:26:24 +0000, !- Name\n   ** Warning ** IP: IDF line~6 Alpha Argument length exceeds maximum, will be truncated=  NECB 2011-SecondarySchool-NECB HDD Method-CAN_MB_Brandon.711400_CWEC.epw created: 2017-07-10 19:26:24 +000\n   **   ~~~   ** Will be processed as Alpha=NECB 2011-SECONDARYSCHOOL-NECB HDD METHOD-CAN_MB_BRANDON.711400_CWEC.EPW CREATED: 2017-07-10 19:26:24 +0000\n   ************* IDF Context for following error/warning message:\n   ************* Note -- lines truncated at 300 characters, if necessary...\n   *************    602 Schedule:Week:Daily,\n   ************* indicated Name=Schedule:Week:Daily {f218747b-9986-4546-8211-5c7ea5ea3327}\n   ************* Only last 10 lines before error line shown.....\n   *************    603   Schedule:Week:Daily {f218747b-9986-4546-8211-5c7ea5ea3327}, !- Name\n   *************    604   Sp-Auditorium_ZN_1_FLR_1 Sys-3 Flr-2 Sch-C HPlcmt-north ZN NECB System 3 PSZ Occ Sch Sunday, !- Sunday Schedule:Day Name\n   *************    605   Sp-Auditorium_ZN_1_FLR_1 Sys-3 Flr-2 Sch-C HPlcmt-north ZN NECB System 3 PSZ Occ Sch Monday, !- Monday Schedule:Day Name\n   *************    606   Sp-Auditorium_ZN_1_FLR_1 Sys-3 Flr-2 Sch-C HPlcmt-north ZN NECB System 3 PSZ Occ Sch Tuesday, !- Tuesday Schedule:Day Name\n   *************    607   Sp-Auditorium_ZN_1_FLR_1 Sys-3 Flr-2 Sch-C HPlcmt-north ZN NECB System 3 PSZ Occ Sch Wednesday, !- Wednesday Schedule:Day Name\n   *************    608   Sp-Auditorium_ZN_1_FLR_1 Sys-3 Flr-2 Sch-C HPlcmt-north ZN NECB System 3 PSZ Occ Sch Thursday, !- Thursday Schedule:Day Name\n   *************    609   Sp-Auditorium_ZN_1_FLR_1 Sys-3 Flr-2 Sch-C HPlcmt-north ZN NECB System 3 PSZ Occ Sch Friday, !- Friday Schedule:Day Name\n   *************    610   Sp-Auditorium_ZN_1_FLR_1 Sys-3 Flr-2 Sch-C HPlcmt-north ZN NECB System 3 PSZ Occ Sch Saturday, !- Saturday Schedule:Day Name\n   *************    611   Sp-Auditorium_ZN_1_FLR_1 Sys-3 Flr-2 Sch-C HPlcmt-north ZN NECB System 3 PSZ Occ Sch Default, !- Holiday Schedule:Day Name\n   *************    612   Sp-Auditorium_ZN_1_FLR_1 Sys-3 Flr-2 Sch-C HPlcmt-north ZN NECB System 3 PSZ Occ Sch Summer Design Day, !- SummerDesignDay Schedule:Day Name\n   ** Warning ** IP: IDF line~612 Alpha Argument length exceeds maximum, will be truncated=  Sp-Auditorium_ZN_1_FLR_1 Sys-3 Flr-2 Sch-C HPlcmt-north ZN NECB System 3 PSZ Occ Sch Summer Design Da\n   **   ~~~   ** Will be processed as Alpha=SP-AUDITORIUM_ZN_1_FLR_1 SYS-3 FLR-2 SCH-C HPLCMT-NORTH ZN NECB SYSTEM 3 PSZ OCC SCH SUMMER DESIGN DAY\n   ************* IDF Context for following error/warning message:\n   ************* Note -- lines truncated at 300 characters, if necessary...\n   *************    602 Schedule:Week:Daily,\n   ************* indicated Name=Schedule:Week:Daily {f218747b-9986-4546-8211-5c7ea5ea3327}\n   ************* Only last 10 lines before error line shown.....\n   *************    604   Sp-Auditorium_ZN_1_FLR_1 Sys-3 Flr-2 Sch-C HPlcmt-north ZN NECB System 3 PSZ Occ Sch Sunday, !- Sunday Schedule:Day Name\n   *************    605   Sp-Auditorium_ZN_1_FLR_1 Sys-3 Flr-2 Sch-C HPlcmt-north ZN NECB System 3 PSZ Occ Sch Monday, !- Monday Schedule:Day Name\n   *************    606   Sp-Auditorium_ZN_1_FLR_1 Sys-3 Flr-2 Sch-C HPlcmt-north ZN NECB System 3 PSZ Occ Sch Tuesday, !- Tuesday Schedule:Day Name\n   *************    607   Sp-Auditorium_ZN_1_FLR_1 Sys-3 Flr-2 Sch-C HPlcmt-north ZN NECB System 3 PSZ Occ Sch Wednesday, !- Wednesday Schedule:Day Name\n   *************    608   Sp-Auditorium_ZN_1_FLR_1 Sys-3 Flr-2 Sch-C HPlcmt-north ZN NECB System 3 PSZ Occ Sch Thursday, !- Thursday Schedule:Day Name\n   *************    609   Sp-Auditorium_ZN_1_FLR_1 Sys-3 Flr-2 Sch-C HPlcmt-north ZN NECB System 3 PSZ Occ Sch Friday, !- Friday Schedule:Day Name\n   *************    610   Sp-Auditorium_ZN_1_FLR_1 Sys-3 Flr-2 Sch-C HPlcmt-north ZN NECB System 3 PSZ Occ Sch Saturday, !- Saturday Schedule:Day Name\n   *************    611   Sp-Auditorium_ZN_1_FLR_1 Sys-3 Flr-2 Sch-C HPlcmt-north ZN NECB System 3 PSZ Occ Sch Default, !- Holiday Schedule:Day Name\n   *************    612   Sp-Auditorium_ZN_1_FLR_1 Sys-3 Flr-2 Sch-C HPlcmt-north ZN NECB System 3 PSZ Occ Sch Summer Design Day, !- SummerDesignDay Schedule:Day Name\n   *************    613   Sp-Auditorium_ZN_1_FLR_1 Sys-3 Flr-2 Sch-C HPlcmt-north ZN NECB System 3 PSZ Occ Sch Winter Design Day, !- WinterDesignDay Schedule:Day Name\n   ** Warning ** IP: IDF line~613 Alpha Argument length exceeds maximum, will be truncated=  Sp-Auditorium_ZN_1_FLR_1 Sys-3 Flr-2 Sch-C HPlcmt-north ZN NECB System 3 PSZ Occ Sch Winter Design Da\n   **   ~~~   ** Will be processed as Alpha=SP-AUDITORIUM_ZN_1_FLR_1 SYS-3 FLR-2 SCH-C HPLCMT-NORTH ZN NECB SYSTEM 3 PSZ OCC SCH WINTER DESIGN DAY\n   ************* IDF Context for following error/warning message:\n   ************* Note -- lines truncated at 300 characters, if necessary...\n   *************    633 Schedule:Day:Interval,\n   ************* indicated Name=Sp-Auditorium_ZN_1_FLR_1 Sys-3 Flr-2 Sch-C HPlcmt-north ZN NECB System 3 PSZ Occ Sch Summer Design Day\n   ************* Only last 1 lines before error line shown.....\n   *************    634   Sp-Auditorium_ZN_1_FLR_1 Sys-3 Flr-2 Sch-C HPlcmt-north ZN NECB System 3 PSZ Occ Sch Summer Design Day, !- Name\n   ** Warning ** IP: IDF line~634 Alpha Argument length exceeds maximum, will be truncated=  Sp-Auditorium_ZN_1_FLR_1 Sys-3 Flr-2 Sch-C HPlcmt-north ZN NECB System 3 PSZ Occ Sch Summer Design Da\n   **   ~~~   ** Will be processed as Alpha=SP-AUDITORIUM_ZN_1_FLR_1 SYS-3 FLR-2 SCH-C HPLCMT-NORTH ZN NECB SYSTEM 3 PSZ OCC SCH SUMMER DESIGN DAY\n   ************* IDF Context for following error/warning message:\n   ************* Note -- lines truncated at 300 characters, if necessary...\n   *************    640 Schedule:Day:Interval,\n   ************* indicated Name=Sp-Auditorium_ZN_1_FLR_1 Sys-3 Flr-2 Sch-C HPlcmt-north ZN NECB System 3 PSZ Occ Sch Winter Design Day\n   ************* Only last 1 lines before error line shown.....\n   *************    641   Sp-Auditorium_ZN_1_FLR_1 Sys-3 Flr-2 Sch-C HPlcmt-north ZN NECB System 3 PSZ Occ Sch Winter Design Day, !- Name\n   ** Warning ** IP: IDF line~641 Alpha Argument length exceeds maximum, will be truncated=  Sp-Auditorium_ZN_1_FLR_1 Sys-3 Flr-2 Sch-C HPlcmt-north ZN NECB System 3 PSZ Occ Sch Winter Design Da\n   **   ~~~   ** Will be processed as Alpha=SP-AUDITORIUM_ZN_1_FLR_1 SYS-3 FLR-2 SCH-C HPLCMT-NORTH ZN NECB SYSTEM 3 PSZ OCC SCH WINTER DESIGN DAY\n   ************* IDF Context for following error/warning message:\n   ************* Note -- lines truncated at 300 characters, if necessary...\n   *************   2680 Schedule:Week:Daily,\n   ************* indicated Name=Schedule:Week:Daily {a6070c37-d52b-4828-87bb-d72f6e7bf94f}\n   ************* Only last 10 lines before error line shown.....\n   *************   2681   Schedule:Week:Daily {a6070c37-d52b-4828-87bb-d72f6e7bf94f}, !- Name\n   *************   2682   Sp-Bathrooms_ZN_1_FLR_2 Sys-3 Flr-1 Sch-D HPlcmt-north ZN NECB System 3 PSZ Occ Sch Sunday, !- Sunday Schedule:Day Name\n   *************   2683   Sp-Bathrooms_ZN_1_FLR_2 Sys-3 Flr-1 Sch-D HPlcmt-north ZN NECB System 3 PSZ Occ Sch Monday, !- Monday Schedule:Day Name\n   *************   2684   Sp-Bathrooms_ZN_1_FLR_2 Sys-3 Flr-1 Sch-D HPlcmt-north ZN NECB System 3 PSZ Occ Sch Tuesday, !- Tuesday Schedule:Day Name\n   *************   2685   Sp-Bathrooms_ZN_1_FLR_2 Sys-3 Flr-1 Sch-D HPlcmt-north ZN NECB System 3 PSZ Occ Sch Wednesday, !- Wednesday Schedule:Day Name\n   *************   2686   Sp-Bathrooms_ZN_1_FLR_2 Sys-3 Flr-1 Sch-D HPlcmt-north ZN NECB System 3 PSZ Occ Sch Thursday, !- Thursday Schedule:Day Name\n   *************   2687   Sp-Bathrooms_ZN_1_FLR_2 Sys-3 Flr-1 Sch-D HPlcmt-north ZN NECB System 3 PSZ Occ Sch Friday, !- Friday Schedule:Day Name\n   *************   2688   Sp-Bathrooms_ZN_1_FLR_2 Sys-3 Flr-1 Sch-D HPlcmt-north ZN NECB System 3 PSZ Occ Sch Saturday, !- Saturday Schedule:Day Name\n   *************   2689   Sp-Bathrooms_ZN_1_FLR_2 Sys-3 Flr-1 Sch-D HPlcmt-north ZN NECB System 3 PSZ Occ Sch Default, !- Holiday Schedule:Day Name\n   *************   2690   Sp-Bathrooms_ZN_1_FLR_2 Sys-3 Flr-1 Sch-D HPlcmt-north ZN NECB System 3 PSZ Occ Sch Summer Design Day, !- SummerDesignDay Schedule:Day Name\n   ** Warning ** IP: IDF line~2690 Alpha Argument length exceeds maximum, will be truncated=  Sp-Bathrooms_ZN_1_FLR_2 Sys-3 Flr-1 Sch-D HPlcmt-north ZN NECB System 3 PSZ Occ Sch Summer Design Da\n   **   ~~~   ** Will be processed as Alpha=SP-BATHROOMS_ZN_1_FLR_2 SYS-3 FLR-1 SCH-D HPLCMT-NORTH ZN NECB SYSTEM 3 PSZ OCC SCH SUMMER DESIGN DAY\n   ************* IDF Context for following error/warning message:\n   ************* Note -- lines truncated at 300 characters, if necessary...\n   *************   2680 Schedule:Week:Daily,\n   ************* indicated Name=Schedule:Week:Daily {a6070c37-d52b-4828-87bb-d72f6e7bf94f}\n   ************* Only last 10 lines before error line shown.....\n   *************   2682   Sp-Bathrooms_ZN_1_FLR_2 Sys-3 Flr-1 Sch-D HPlcmt-north ZN NECB System 3 PSZ Occ Sch Sunday, !- Sunday Schedule:Day Name\n   *************   2683   Sp-Bathrooms_ZN_1_FLR_2 Sys-3 Flr-1 Sch-D HPlcmt-north ZN NECB System 3 PSZ Occ Sch Monday, !- Monday Schedule:Day Name\n   *************   2684   Sp-Bathrooms_ZN_1_FLR_2 Sys-3 Flr-1 Sch-D HPlcmt-north ZN NECB System 3 PSZ Occ Sch Tuesday, !- Tuesday Schedule:Day Name\n   *************   2685   Sp-Bathrooms_ZN_1_FLR_2 Sys-3 Flr-1 Sch-D HPlcmt-north ZN NECB System 3 PSZ Occ Sch Wednesday, !- Wednesday Schedule:Day Name\n   *************   2686   Sp-Bathrooms_ZN_1_FLR_2 Sys-3 Flr-1 Sch-D HPlcmt-north ZN NECB System 3 PSZ Occ Sch Thursday, !- Thursday Schedule:Day Name\n   *************   2687   Sp-Bathrooms_ZN_1_FLR_2 Sys-3 Flr-1 Sch-D HPlcmt-north ZN NECB System 3 PSZ Occ Sch Friday, !- Friday Schedule:Day Name\n   *************   2688   Sp-Bathrooms_ZN_1_FLR_2 Sys-3 Flr-1 Sch-D HPlcmt-north ZN NECB System 3 PSZ Occ Sch Saturday, !- Saturday Schedule:Day Name\n   *************   2689   Sp-Bathrooms_ZN_1_FLR_2 Sys-3 Flr-1 Sch-D HPlcmt-north ZN NECB System 3 PSZ Occ Sch Default, !- Holiday Schedule:Day Name\n   *************   2690   Sp-Bathrooms_ZN_1_FLR_2 Sys-3 Flr-1 Sch-D HPlcmt-north ZN NECB System 3 PSZ Occ Sch Summer Design Day, !- SummerDesignDay Schedule:Day Name\n   *************   2691   Sp-Bathrooms_ZN_1_FLR_2 Sys-3 Flr-1 Sch-D HPlcmt-north ZN NECB System 3 PSZ Occ Sch Winter Design Day, !- WinterDesignDay Schedule:Day Name\n   ** Warning ** IP: IDF line~2691 Alpha Argument length exceeds maximum, will be truncated=  Sp-Bathrooms_ZN_1_FLR_2 Sys-3 Flr-1 Sch-D HPlcmt-north ZN NECB System 3 PSZ Occ Sch Winter Design Da\n   **   ~~~   ** Will be processed as Alpha=SP-BATHROOMS_ZN_1_FLR_2 SYS-3 FLR-1 SCH-D HPLCMT-NORTH ZN NECB SYSTEM 3 PSZ OCC SCH WINTER DESIGN DAY\n   ************* IDF Context for following error/warning message:\n   ************* Note -- lines truncated at 300 characters, if necessary...\n   *************   2711 Schedule:Day:Interval,\n   ************* indicated Name=Sp-Bathrooms_ZN_1_FLR_2 Sys-3 Flr-1 Sch-D HPlcmt-north ZN NECB System 3 PSZ Occ Sch Summer Design Day\n   ************* Only last 1 lines before error line shown.....\n   *************   2712   Sp-Bathrooms_ZN_1_FLR_2 Sys-3 Flr-1 Sch-D HPlcmt-north ZN NECB System 3 PSZ Occ Sch Summer Design Day, !- Name\n   ** Warning ** IP: IDF line~2712 Alpha Argument length exceeds maximum, will be truncated=  Sp-Bathrooms_ZN_1_FLR_2 Sys-3 Flr-1 Sch-D HPlcmt-north ZN NECB System 3 PSZ Occ Sch Summer Design Da\n   **   ~~~   ** Will be processed as Alpha=SP-BATHROOMS_ZN_1_FLR_2 SYS-3 FLR-1 SCH-D HPLCMT-NORTH ZN NECB SYSTEM 3 PSZ OCC SCH SUMMER DESIGN DAY\n   ************* IDF Context for following error/warning message:\n   ************* Note -- lines truncated at 300 characters, if necessary...\n   *************   2718 Schedule:Day:Interval,\n   ************* indicated Name=Sp-Bathrooms_ZN_1_FLR_2 Sys-3 Flr-1 Sch-D HPlcmt-north ZN NECB System 3 PSZ Occ Sch Winter Design Day\n   ************* Only last 1 lines before error line shown.....\n   *************   2719   Sp-Bathrooms_ZN_1_FLR_2 Sys-3 Flr-1 Sch-D HPlcmt-north ZN NECB System 3 PSZ Occ Sch Winter Design Day, !- Name\n   ** Warning ** IP: IDF line~2719 Alpha Argument length exceeds maximum, will be truncated=  Sp-Bathrooms_ZN_1_FLR_2 Sys-3 Flr-1 Sch-D HPlcmt-north ZN NECB System 3 PSZ Occ Sch Winter Design Da\n   **   ~~~   ** Will be processed as Alpha=SP-BATHROOMS_ZN_1_FLR_2 SYS-3 FLR-1 SCH-D HPLCMT-NORTH ZN NECB SYSTEM 3 PSZ OCC SCH WINTER DESIGN DAY\n   ************* IDF Context for following error/warning message:\n   ************* Note -- lines truncated at 300 characters, if necessary...\n   *************   3379 Schedule:Day:Interval,\n   ************* indicated Name=Sp-Corner_Class_1_Pod_1_ZN_1_FLR_1 Sys-3 Flr-2 Sch-D HPlcmt-south ZN NECB System 3 PSZ Occ Sch Sunday\n   ************* Only last 1 lines before error line shown.....\n   *************   3380   Sp-Corner_Class_1_Pod_1_ZN_1_FLR_1 Sys-3 Flr-2 Sch-D HPlcmt-south ZN NECB System 3 PSZ Occ Sch Sunday, !- Name\n   ** Warning ** IP: IDF line~3380 Alpha Argument length exceeds maximum, will be truncated=  Sp-Corner_Class_1_Pod_1_ZN_1_FLR_1 Sys-3 Flr-2 Sch-D HPlcmt-south ZN NECB System 3 PSZ Occ Sch Sunda\n   **   ~~~   ** Will be processed as Alpha=SP-CORNER_CLASS_1_POD_1_ZN_1_FLR_1 SYS-3 FLR-2 SCH-D HPLCMT-SOUTH ZN NECB SYSTEM 3 PSZ OCC SCH SUNDAY\n   ************* IDF Context for following error/warning message:\n   ************* Note -- lines truncated at 300 characters, if necessary...\n   *************   3386 Schedule:Day:Interval,\n   ************* indicated Name=Sp-Corner_Class_1_Pod_1_ZN_1_FLR_1 Sys-3 Flr-2 Sch-D HPlcmt-south ZN NECB System 3 PSZ Occ Sch Monday\n   ************* Only last 1 lines before error line shown.....\n   *************   3387   Sp-Corner_Class_1_Pod_1_ZN_1_FLR_1 Sys-3 Flr-2 Sch-D HPlcmt-south ZN NECB System 3 PSZ Occ Sch Monday, !- Name\n   ** Warning ** IP: IDF line~3387 Alpha Argument length exceeds maximum, will be truncated=  Sp-Corner_Class_1_Pod_1_ZN_1_FLR_1 Sys-3 Flr-2 Sch-D HPlcmt-south ZN NECB System 3 PSZ Occ Sch Monda\n   **   ~~~   ** Will be processed as Alpha=SP-CORNER_CLASS_1_POD_1_ZN_1_FLR_1 SYS-3 FLR-2 SCH-D HPLCMT-SOUTH ZN NECB SYSTEM 3 PSZ OCC SCH MONDAY\n   ************* IDF Context for following error/warning message:\n   ************* Note -- lines truncated at 300 characters, if necessary...\n   *************   3401 Schedule:Day:Interval,\n   ************* indicated Name=Sp-Corner_Class_1_Pod_1_ZN_1_FLR_1 Sys-3 Flr-2 Sch-D HPlcmt-south ZN NECB System 3 PSZ Occ Sch Tuesday\n   ************* Only last 1 lines before error line shown.....\n   *************   3402   Sp-Corner_Class_1_Pod_1_ZN_1_FLR_1 Sys-3 Flr-2 Sch-D HPlcmt-south ZN NECB System 3 PSZ Occ Sch Tuesday, !- Name\n   ** Warning ** IP: IDF line~3402 Alpha Argument length exceeds maximum, will be truncated=  Sp-Corner_Class_1_Pod_1_ZN_1_FLR_1 Sys-3 Flr-2 Sch-D HPlcmt-south ZN NECB System 3 PSZ Occ Sch Tuesda\n   **   ~~~   ** Will be processed as Alpha=SP-CORNER_CLASS_1_POD_1_ZN_1_FLR_1 SYS-3 FLR-2 SCH-D HPLCMT-SOUTH ZN NECB SYSTEM 3 PSZ OCC SCH TUESDAY\n   ************* IDF Context for following error/warning message:\n   ************* Note -- lines truncated at 300 characters, if necessary...\n   *************   3416 Schedule:Day:Interval,\n   ************* indicated Name=Sp-Corner_Class_1_Pod_1_ZN_1_FLR_1 Sys-3 Flr-2 Sch-D HPlcmt-south ZN NECB System 3 PSZ Occ Sch Wednesday\n   ************* Only last 1 lines before error line shown.....\n   *************   3417   Sp-Corner_Class_1_Pod_1_ZN_1_FLR_1 Sys-3 Flr-2 Sch-D HPlcmt-south ZN NECB System 3 PSZ Occ Sch Wednesday, !- Name\n   ** Warning ** IP: IDF line~3417 Alpha Argument length exceeds maximum, will be truncated=  Sp-Corner_Class_1_Pod_1_ZN_1_FLR_1 Sys-3 Flr-2 Sch-D HPlcmt-south ZN NECB System 3 PSZ Occ Sch Wednesda\n   **   ~~~   ** Will be processed as Alpha=SP-CORNER_CLASS_1_POD_1_ZN_1_FLR_1 SYS-3 FLR-2 SCH-D HPLCMT-SOUTH ZN NECB SYSTEM 3 PSZ OCC SCH WEDNESDAY\n   ************* IDF Context for following error/warning message:\n   ************* Note -- lines truncated at 300 characters, if necessary...\n   *************   3431 Schedule:Day:Interval,\n   ************* indicated Name=Sp-Corner_Class_1_Pod_1_ZN_1_FLR_1 Sys-3 Flr-2 Sch-D HPlcmt-south ZN NECB System 3 PSZ Occ Sch Thursday\n   ************* Only last 1 lines before error line shown.....\n   *************   3432   Sp-Corner_Class_1_Pod_1_ZN_1_FLR_1 Sys-3 Flr-2 Sch-D HPlcmt-south ZN NECB System 3 PSZ Occ Sch Thursday, !- Name\n   ** Warning ** IP: IDF line~3432 Alpha Argument length exceeds maximum, will be truncated=  Sp-Corner_Class_1_Pod_1_ZN_1_FLR_1 Sys-3 Flr-2 Sch-D HPlcmt-south ZN NECB System 3 PSZ Occ Sch Thursda\n   **   ~~~   ** Will be processed as Alpha=SP-CORNER_CLASS_1_POD_1_ZN_1_FLR_1 SYS-3 FLR-2 SCH-D HPLCMT-SOUTH ZN NECB SYSTEM 3 PSZ OCC SCH THURSDAY\n   ************* IDF Context for following error/warning message:\n   ************* Note -- lines truncated at 300 characters, if necessary...\n   *************   3446 Schedule:Day:Interval,\n   ************* indicated Name=Sp-Corner_Class_1_Pod_1_ZN_1_FLR_1 Sys-3 Flr-2 Sch-D HPlcmt-south ZN NECB System 3 PSZ Occ Sch Friday\n   ************* Only last 1 lines before error line shown.....\n   *************   3447   Sp-Corner_Class_1_Pod_1_ZN_1_FLR_1 Sys-3 Flr-2 Sch-D HPlcmt-south ZN NECB System 3 PSZ Occ Sch Friday, !- Name\n   ** Warning ** IP: IDF line~3447 Alpha Argument length exceeds maximum, will be truncated=  Sp-Corner_Class_1_Pod_1_ZN_1_FLR_1 Sys-3 Flr-2 Sch-D HPlcmt-south ZN NECB System 3 PSZ Occ Sch Frida\n   **   ~~~   ** Will be processed as Alpha=SP-CORNER_CLASS_1_POD_1_ZN_1_FLR_1 SYS-3 FLR-2 SCH-D HPLCMT-SOUTH ZN NECB SYSTEM 3 PSZ OCC SCH FRIDAY\n   ************* IDF Context for following error/warning message:\n   ************* Note -- lines truncated at 300 characters, if necessary...\n   *************   3461 Schedule:Day:Interval,\n   ************* indicated Name=Sp-Corner_Class_1_Pod_1_ZN_1_FLR_1 Sys-3 Flr-2 Sch-D HPlcmt-south ZN NECB System 3 PSZ Occ Sch Saturday\n   ************* Only last 1 lines before error line shown.....\n   *************   3462   Sp-Corner_Class_1_Pod_1_ZN_1_FLR_1 Sys-3 Flr-2 Sch-D HPlcmt-south ZN NECB System 3 PSZ Occ Sch Saturday, !- Name\n   ** Warning ** IP: IDF line~3462 Alpha Argument length exceeds maximum, will be truncated=  Sp-Corner_Class_1_Pod_1_ZN_1_FLR_1 Sys-3 Flr-2 Sch-D HPlcmt-south ZN NECB System 3 PSZ Occ Sch Saturda\n   **   ~~~   ** Will be processed as Alpha=SP-CORNER_CLASS_1_POD_1_ZN_1_FLR_1 SYS-3 FLR-2 SCH-D HPLCMT-SOUTH ZN NECB SYSTEM 3 PSZ OCC SCH SATURDAY\n   ************* IDF Context for following error/warning message:\n   ************* Note -- lines truncated at 300 characters, if necessary...\n   *************   3468 Schedule:Week:Daily,\n   ************* indicated Name=Schedule:Week:Daily {c6b567a0-8d2e-4c38-8b6b-25c5f209c8f5}\n   ************* Only last 2 lines before error line shown.....\n   *************   3469   Schedule:Week:Daily {c6b567a0-8d2e-4c38-8b6b-25c5f209c8f5}, !- Name\n   *************   3470   Sp-Corner_Class_1_Pod_1_ZN_1_FLR_1 Sys-3 Flr-2 Sch-D HPlcmt-south ZN NECB System 3 PSZ Occ Sch Sunday, !- Sunday Schedule:Day Name\n   ** Warning ** IP: IDF line~3470 Alpha Argument length exceeds maximum, will be truncated=  Sp-Corner_Class_1_Pod_1_ZN_1_FLR_1 Sys-3 Flr-2 Sch-D HPlcmt-south ZN NECB System 3 PSZ Occ Sch Sunda\n   **   ~~~   ** Will be processed as Alpha=SP-CORNER_CLASS_1_POD_1_ZN_1_FLR_1 SYS-3 FLR-2 SCH-D HPLCMT-SOUTH ZN NECB SYSTEM 3 PSZ OCC SCH SUNDAY\n   ************* IDF Context for following error/warning message:\n   ************* Note -- lines truncated at 300 characters, if necessary...\n   *************   3468 Schedule:Week:Daily,\n   ************* indicated Name=Schedule:Week:Daily {c6b567a0-8d2e-4c38-8b6b-25c5f209c8f5}\n   ************* Only last 3 lines before error line shown.....\n   *************   3469   Schedule:Week:Daily {c6b567a0-8d2e-4c38-8b6b-25c5f209c8f5}, !- Name\n   *************   3470   Sp-Corner_Class_1_Pod_1_ZN_1_FLR_1 Sys-3 Flr-2 Sch-D HPlcmt-south ZN NECB System 3 PSZ Occ Sch Sunday, !- Sunday Schedule:Day Name\n   *************   3471   Sp-Corner_Class_1_Pod_1_ZN_1_FLR_1 Sys-3 Flr-2 Sch-D HPlcmt-south ZN NECB System 3 PSZ Occ Sch Monday, !- Monday Schedule:Day Name\n   ** Warning ** IP: IDF line~3471 Alpha Argument length exceeds maximum, will be truncated=  Sp-Corner_Class_1_Pod_1_ZN_1_FLR_1 Sys-3 Flr-2 Sch-D HPlcmt-south ZN NECB System 3 PSZ Occ Sch Monda\n   **   ~~~   ** Will be processed as Alpha=SP-CORNER_CLASS_1_POD_1_ZN_1_FLR_1 SYS-3 FLR-2 SCH-D HPLCMT-SOUTH ZN NECB SYSTEM 3 PSZ OCC SCH MONDAY\n   ************* IDF Context for following error/warning message:\n   ************* Note -- lines truncated at 300 characters, if necessary...\n   *************   3468 Schedule:Week:Daily,\n   ************* indicated Name=Schedule:Week:Daily {c6b567a0-8d2e-4c38-8b6b-25c5f209c8f5}\n   ************* Only last 4 lines before error line shown.....\n   *************   3469   Schedule:Week:Daily {c6b567a0-8d2e-4c38-8b6b-25c5f209c8f5}, !- Name\n   *************   3470   Sp-Corner_Class_1_Pod_1_ZN_1_FLR_1 Sys-3 Flr-2 Sch-D HPlcmt-south ZN NECB System 3 PSZ Occ Sch Sunday, !- Sunday Schedule:Day Name\n   *************   3471   Sp-Corner_Class_1_Pod_1_ZN_1_FLR_1 Sys-3 Flr-2 Sch-D HPlcmt-south ZN NECB System 3 PSZ Occ Sch Monday, !- Monday Schedule:Day Name\n   *************   3472   Sp-Corner_Class_1_Pod_1_ZN_1_FLR_1 Sys-3 Flr-2 Sch-D HPlcmt-south ZN NECB System 3 PSZ Occ Sch Tuesday, !- Tuesday Schedule:Day Name\n   ** Warning ** IP: IDF line~3472 Alpha Argument length exceeds maximum, will be truncated=  Sp-Corner_Class_1_Pod_1_ZN_1_FLR_1 Sys-3 Flr-2 Sch-D HPlcmt-south ZN NECB System 3 PSZ Occ Sch Tuesda\n   **   ~~~   ** Will be processed as Alpha=SP-CORNER_CLASS_1_POD_1_ZN_1_FLR_1 SYS-3 FLR-2 SCH-D HPLCMT-SOUTH ZN NECB SYSTEM 3 PSZ OCC SCH TUESDAY\n   ************* IDF Context for following error/warning message:\n   ************* Note -- lines truncated at 300 characters, if necessary...\n   *************   3468 Schedule:Week:Daily,\n   ************* indicated Name=Schedule:Week:Daily {c6b567a0-8d2e-4c38-8b6b-25c5f209c8f5}\n   ************* Only last 5 lines before error line shown.....\n   *************   3469   Schedule:Week:Daily {c6b567a0-8d2e-4c38-8b6b-25c5f209c8f5}, !- Name\n   *************   3470   Sp-Corner_Class_1_Pod_1_ZN_1_FLR_1 Sys-3 Flr-2 Sch-D HPlcmt-south ZN NECB System 3 PSZ Occ Sch Sunday, !- Sunday Schedule:Day Name\n   *************   3471   Sp-Corner_Class_1_Pod_1_ZN_1_FLR_1 Sys-3 Flr-2 Sch-D HPlcmt-south ZN NECB System 3 PSZ Occ Sch Monday, !- Monday Schedule:Day Name\n   *************   3472   Sp-Corner_Class_1_Pod_1_ZN_1_FLR_1 Sys-3 Flr-2 Sch-D HPlcmt-south ZN NECB System 3 PSZ Occ Sch Tuesday, !- Tuesday Schedule:Day Name\n   *************   3473   Sp-Corner_Class_1_Pod_1_ZN_1_FLR_1 Sys-3 Flr-2 Sch-D HPlcmt-south ZN NECB System 3 PSZ Occ Sch Wednesday, !- Wednesday Schedule:Day Name\n   ** Warning ** IP: IDF line~3473 Alpha Argument length exceeds maximum, will be truncated=  Sp-Corner_Class_1_Pod_1_ZN_1_FLR_1 Sys-3 Flr-2 Sch-D HPlcmt-south ZN NECB System 3 PSZ Occ Sch Wednesda\n   **   ~~~   ** Will be processed as Alpha=SP-CORNER_CLASS_1_POD_1_ZN_1_FLR_1 SYS-3 FLR-2 SCH-D HPLCMT-SOUTH ZN NECB SYSTEM 3 PSZ OCC SCH WEDNESDAY\n   ************* IDF Context for following error/warning message:\n   ************* Note -- lines truncated at 300 characters, if necessary...\n   *************   3468 Schedule:Week:Daily,\n   ************* indicated Name=Schedule:Week:Daily {c6b567a0-8d2e-4c38-8b6b-25c5f209c8f5}\n   ************* Only last 6 lines before error line shown.....\n   *************   3469   Schedule:Week:Daily {c6b567a0-8d2e-4c38-8b6b-25c5f209c8f5}, !- Name\n   *************   3470   Sp-Corner_Class_1_Pod_1_ZN_1_FLR_1 Sys-3 Flr-2 Sch-D HPlcmt-south ZN NECB System 3 PSZ Occ Sch Sunday, !- Sunday Schedule:Day Name\n   *************   3471   Sp-Corner_Class_1_Pod_1_ZN_1_FLR_1 Sys-3 Flr-2 Sch-D HPlcmt-south ZN NECB System 3 PSZ Occ Sch Monday, !- Monday Schedule:Day Name\n   *************   3472   Sp-Corner_Class_1_Pod_1_ZN_1_FLR_1 Sys-3 Flr-2 Sch-D HPlcmt-south ZN NECB System 3 PSZ Occ Sch Tuesday, !- Tuesday Schedule:Day Name\n   *************   3473   Sp-Corner_Class_1_Pod_1_ZN_1_FLR_1 Sys-3 Flr-2 Sch-D HPlcmt-south ZN NECB System 3 PSZ Occ Sch Wednesday, !- Wednesday Schedule:Day Name\n   *************   3474   Sp-Corner_Class_1_Pod_1_ZN_1_FLR_1 Sys-3 Flr-2 Sch-D HPlcmt-south ZN NECB System 3 PSZ Occ Sch Thursday, !- Thursday Schedule:Day Name\n   ** Warning ** IP: IDF line~3474 Alpha Argument length exceeds maximum, will be truncated=  Sp-Corner_Class_1_Pod_1_ZN_1_FLR_1 Sys-3 Flr-2 Sch-D HPlcmt-south ZN NECB System 3 PSZ Occ Sch Thursda\n   **   ~~~   ** Will be processed as Alpha=SP-CORNER_CLASS_1_POD_1_ZN_1_FLR_1 SYS-3 FLR-2 SCH-D HPLCMT-SOUTH ZN NECB SYSTEM 3 PSZ OCC SCH THURSDAY\n   ************* IDF Context for following error/warning message:\n   ************* Note -- lines truncated at 300 characters, if necessary...\n   *************   3468 Schedule:Week:Daily,\n   ************* indicated Name=Schedule:Week:Daily {c6b567a0-8d2e-4c38-8b6b-25c5f209c8f5}\n   ************* Only last 7 lines before error line shown.....\n   *************   3469   Schedule:Week:Daily {c6b567a0-8d2e-4c38-8b6b-25c5f209c8f5}, !- Name\n   *************   3470   Sp-Corner_Class_1_Pod_1_ZN_1_FLR_1 Sys-3 Flr-2 Sch-D HPlcmt-south ZN NECB System 3 PSZ Occ Sch Sunday, !- Sunday Schedule:Day Name\n   *************   3471   Sp-Corner_Class_1_Pod_1_ZN_1_FLR_1 Sys-3 Flr-2 Sch-D HPlcmt-south ZN NECB System 3 PSZ Occ Sch Monday, !- Monday Schedule:Day Name\n   *************   3472   Sp-Corner_Class_1_Pod_1_ZN_1_FLR_1 Sys-3 Flr-2 Sch-D HPlcmt-south ZN NECB System 3 PSZ Occ Sch Tuesday, !- Tuesday Schedule:Day Name\n   *************   3473   Sp-Corner_Class_1_Pod_1_ZN_1_FLR_1 Sys-3 Flr-2 Sch-D HPlcmt-south ZN NECB System 3 PSZ Occ Sch Wednesday, !- Wednesday Schedule:Day Name\n   *************   3474   Sp-Corner_Class_1_Pod_1_ZN_1_FLR_1 Sys-3 Flr-2 Sch-D HPlcmt-south ZN NECB System 3 PSZ Occ Sch Thursday, !- Thursday Schedule:Day Name\n   *************   3475   Sp-Corner_Class_1_Pod_1_ZN_1_FLR_1 Sys-3 Flr-2 Sch-D HPlcmt-south ZN NECB System 3 PSZ Occ Sch Friday, !- Friday Schedule:Day Name\n   ** Warning ** IP: IDF line~3475 Alpha Argument length exceeds maximum, will be truncated=  Sp-Corner_Class_1_Pod_1_ZN_1_FLR_1 Sys-3 Flr-2 Sch-D HPlcmt-south ZN NECB System 3 PSZ Occ Sch Frida\n   **   ~~~   ** Will be processed as Alpha=SP-CORNER_CLASS_1_POD_1_ZN_1_FLR_1 SYS-3 FLR-2 SCH-D HPLCMT-SOUTH ZN NECB SYSTEM 3 PSZ OCC SCH FRIDAY\n   ************* IDF Context for following error/warning message:\n   ************* Note -- lines truncated at 300 characters, if necessary...\n   *************   3468 Schedule:Week:Daily,\n   ************* indicated Name=Schedule:Week:Daily {c6b567a0-8d2e-4c38-8b6b-25c5f209c8f5}\n   ************* Only last 8 lines before error line shown.....\n   *************   3469   Schedule:Week:Daily {c6b567a0-8d2e-4c38-8b6b-25c5f209c8f5}, !- Name\n   *************   3470   Sp-Corner_Class_1_Pod_1_ZN_1_FLR_1 Sys-3 Flr-2 Sch-D HPlcmt-south ZN NECB System 3 PSZ Occ Sch Sunday, !- Sunday Schedule:Day Name\n   *************   3471   Sp-Corner_Class_1_Pod_1_ZN_1_FLR_1 Sys-3 Flr-2 Sch-D HPlcmt-south ZN NECB System 3 PSZ Occ Sch Monday, !- Monday Schedule:Day Name\n   *************   3472   Sp-Corner_Class_1_Pod_1_ZN_1_FLR_1 Sys-3 Flr-2 Sch-D HPlcmt-south ZN NECB System 3 PSZ Occ Sch Tuesday, !- Tuesday Schedule:Day Name\n   *************   3473   Sp-Corner_Class_1_Pod_1_ZN_1_FLR_1 Sys-3 Flr-2 Sch-D HPlcmt-south ZN NECB System 3 PSZ Occ Sch Wednesday, !- Wednesday Schedule:Day Name\n   *************   3474   Sp-Corner_Class_1_Pod_1_ZN_1_FLR_1 Sys-3 Flr-2 Sch-D HPlcmt-south ZN NECB System 3 PSZ Occ Sch Thursday, !- Thursday Schedule:Day Name\n   *************   3475   Sp-Corner_Class_1_Pod_1_ZN_1_FLR_1 Sys-3 Flr-2 Sch-D HPlcmt-south ZN NECB System 3 PSZ Occ Sch Friday, !- Friday Schedule:Day Name\n   *************   3476   Sp-Corner_Class_1_Pod_1_ZN_1_FLR_1 Sys-3 Flr-2 Sch-D HPlcmt-south ZN NECB System 3 PSZ Occ Sch Saturday, !- Saturday Schedule:Day Name\n   ** Warning ** IP: IDF line~3476 Alpha Argument length exceeds maximum, will be truncated=  Sp-Corner_Class_1_Pod_1_ZN_1_FLR_1 Sys-3 Flr-2 Sch-D HPlcmt-south ZN NECB System 3 PSZ Occ Sch Saturda\n   **   ~~~   ** Will be processed as Alpha=SP-CORNER_CLASS_1_POD_1_ZN_1_FLR_1 SYS-3 FLR-2 SCH-D HPLCMT-SOUTH ZN NECB SYSTEM 3 PSZ OCC SCH SATURDAY\n   ************* IDF Context for following error/warning message:\n   ************* Note -- lines truncated at 300 characters, if necessary...\n   *************   3468 Schedule:Week:Daily,\n   ************* indicated Name=Schedule:Week:Daily {c6b567a0-8d2e-4c38-8b6b-25c5f209c8f5}\n   ************* Only last 9 lines before error line shown.....\n   *************   3469   Schedule:Week:Daily {c6b567a0-8d2e-4c38-8b6b-25c5f209c8f5}, !- Name\n   *************   3470   Sp-Corner_Class_1_Pod_1_ZN_1_FLR_1 Sys-3 Flr-2 Sch-D HPlcmt-south ZN NECB System 3 PSZ Occ Sch Sunday, !- Sunday Schedule:Day Name\n   *************   3471   Sp-Corner_Class_1_Pod_1_ZN_1_FLR_1 Sys-3 Flr-2 Sch-D HPlcmt-south ZN NECB System 3 PSZ Occ Sch Monday, !- Monday Schedule:Day Name\n   *************   3472   Sp-Corner_Class_1_Pod_1_ZN_1_FLR_1 Sys-3 Flr-2 Sch-D HPlcmt-south ZN NECB System 3 PSZ Occ Sch Tuesday, !- Tuesday Schedule:Day Name\n   *************   3473   Sp-Corner_Class_1_Pod_1_ZN_1_FLR_1 Sys-3 Flr-2 Sch-D HPlcmt-south ZN NECB System 3 PSZ Occ Sch Wednesday, !- Wednesday Schedule:Day Name\n   *************   3474   Sp-Corner_Class_1_Pod_1_ZN_1_FLR_1 Sys-3 Flr-2 Sch-D HPlcmt-south ZN NECB System 3 PSZ Occ Sch Thursday, !- Thursday Schedule:Day Name\n   *************   3475   Sp-Corner_Class_1_Pod_1_ZN_1_FLR_1 Sys-3 Flr-2 Sch-D HPlcmt-south ZN NECB System 3 PSZ Occ Sch Friday, !- Friday Schedule:Day Name\n   *************   3476   Sp-Corner_Class_1_Pod_1_ZN_1_FLR_1 Sys-3 Flr-2 Sch-D HPlcmt-south ZN NECB System 3 PSZ Occ Sch Saturday, !- Saturday Schedule:Day Name\n   *************   3477   Sp-Corner_Class_1_Pod_1_ZN_1_FLR_1 Sys-3 Flr-2 Sch-D HPlcmt-south ZN NECB System 3 PSZ Occ Sch Default, !- Holiday Schedule:Day Name\n   ** Warning ** IP: IDF line~3477 Alpha Argument length exceeds maximum, will be truncated=  Sp-Corner_Class_1_Pod_1_ZN_1_FLR_1 Sys-3 Flr-2 Sch-D HPlcmt-south ZN NECB System 3 PSZ Occ Sch Defaul\n   **   ~~~   ** Will be processed as Alpha=SP-CORNER_CLASS_1_POD_1_ZN_1_FLR_1 SYS-3 FLR-2 SCH-D HPLCMT-SOUTH ZN NECB SYSTEM 3 PSZ OCC SCH DEFAULT\n   ************* IDF Context for following error/warning message:\n   ************* Note -- lines truncated at 300 characters, if necessary...\n   *************   3468 Schedule:Week:Daily,\n   ************* indicated Name=Schedule:Week:Daily {c6b567a0-8d2e-4c38-8b6b-25c5f209c8f5}\n   ************* Only last 10 lines before error line shown.....\n   *************   3469   Schedule:Week:Daily {c6b567a0-8d2e-4c38-8b6b-25c5f209c8f5}, !- Name\n   *************   3470   Sp-Corner_Class_1_Pod_1_ZN_1_FLR_1 Sys-3 Flr-2 Sch-D HPlcmt-south ZN NECB System 3 PSZ Occ Sch Sunday, !- Sunday Schedule:Day Name\n   *************   3471   Sp-Corner_Class_1_Pod_1_ZN_1_FLR_1 Sys-3 Flr-2 Sch-D HPlcmt-south ZN NECB System 3 PSZ Occ Sch Monday, !- Monday Schedule:Day Name\n   *************   3472   Sp-Corner_Class_1_Pod_1_ZN_1_FLR_1 Sys-3 Flr-2 Sch-D HPlcmt-south ZN NECB System 3 PSZ Occ Sch Tuesday, !- Tuesday Schedule:Day Name\n   *************   3473   Sp-Corner_Class_1_Pod_1_ZN_1_FLR_1 Sys-3 Flr-2 Sch-D HPlcmt-south ZN NECB System 3 PSZ Occ Sch Wednesday, !- Wednesday Schedule:Day Name\n   *************   3474   Sp-Corner_Class_1_Pod_1_ZN_1_FLR_1 Sys-3 Flr-2 Sch-D HPlcmt-south ZN NECB System 3 PSZ Occ Sch Thursday, !- Thursday Schedule:Day Name\n   *************   3475   Sp-Corner_Class_1_Pod_1_ZN_1_FLR_1 Sys-3 Flr-2 Sch-D HPlcmt-south ZN NECB System 3 PSZ Occ Sch Friday, !- Friday Schedule:Day Name\n   *************   3476   Sp-Corner_Class_1_Pod_1_ZN_1_FLR_1 Sys-3 Flr-2 Sch-D HPlcmt-south ZN NECB System 3 PSZ Occ Sch Saturday, !- Saturday Schedule:Day Name\n   *************   3477   Sp-Corner_Class_1_Pod_1_ZN_1_FLR_1 Sys-3 Flr-2 Sch-D HPlcmt-south ZN NECB System 3 PSZ Occ Sch Default, !- Holiday Schedule:Day Name\n   *************   3478   Sp-Corner_Class_1_Pod_1_ZN_1_FLR_1 Sys-3 Flr-2 Sch-D HPlcmt-south ZN NECB System 3 PSZ Occ Sch Summer Design Day, !- SummerDesignDay Schedule:Day Name\n   ** Warning ** IP: IDF line~3478 Alpha Argument length exceeds maximum, will be truncated=  Sp-Corner_Class_1_Pod_1_ZN_1_FLR_1 Sys-3 Flr-2 Sch-D HPlcmt-south ZN NECB System 3 PSZ Occ Sch Summer Design Da\n   **   ~~~   ** Will be processed as Alpha=SP-CORNER_CLASS_1_POD_1_ZN_1_FLR_1 SYS-3 FLR-2 SCH-D HPLCMT-SOUTH ZN NECB SYSTEM 3 PSZ OCC SCH SUMMER DESIGN DAY\n   ************* IDF Context for following error/warning message:\n   ************* Note -- lines truncated at 300 characters, if necessary...\n   *************   3468 Schedule:Week:Daily,\n   ************* indicated Name=Schedule:Week:Daily {c6b567a0-8d2e-4c38-8b6b-25c5f209c8f5}\n   ************* Only last 10 lines before error line shown.....\n   *************   3470   Sp-Corner_Class_1_Pod_1_ZN_1_FLR_1 Sys-3 Flr-2 Sch-D HPlcmt-south ZN NECB System 3 PSZ Occ Sch Sunday, !- Sunday Schedule:Day Name\n   *************   3471   Sp-Corner_Class_1_Pod_1_ZN_1_FLR_1 Sys-3 Flr-2 Sch-D HPlcmt-south ZN NECB System 3 PSZ Occ Sch Monday, !- Monday Schedule:Day Name\n   *************   3472   Sp-Corner_Class_1_Pod_1_ZN_1_FLR_1 Sys-3 Flr-2 Sch-D HPlcmt-south ZN NECB System 3 PSZ Occ Sch Tuesday, !- Tuesday Schedule:Day Name\n   *************   3473   Sp-Corner_Class_1_Pod_1_ZN_1_FLR_1 Sys-3 Flr-2 Sch-D HPlcmt-south ZN NECB System 3 PSZ Occ Sch Wednesday, !- Wednesday Schedule:Day Name\n   *************   3474   Sp-Corner_Class_1_Pod_1_ZN_1_FLR_1 Sys-3 Flr-2 Sch-D HPlcmt-south ZN NECB System 3 PSZ Occ Sch Thursday, !- Thursday Schedule:Day Name\n   *************   3475   Sp-Corner_Class_1_Pod_1_ZN_1_FLR_1 Sys-3 Flr-2 Sch-D HPlcmt-south ZN NECB System 3 PSZ Occ Sch Friday, !- Friday Schedule:Day Name\n   *************   3476   Sp-Corner_Class_1_Pod_1_ZN_1_FLR_1 Sys-3 Flr-2 Sch-D HPlcmt-south ZN NECB System 3 PSZ Occ Sch Saturday, !- Saturday Schedule:Day Name\n   *************   3477   Sp-Corner_Class_1_Pod_1_ZN_1_FLR_1 Sys-3 Flr-2 Sch-D HPlcmt-south ZN NECB System 3 PSZ Occ Sch Default, !- Holiday Schedule:Day Name\n   *************   3478   Sp-Corner_Class_1_Pod_1_ZN_1_FLR_1 Sys-3 Flr-2 Sch-D HPlcmt-south ZN NECB System 3 PSZ Occ Sch Summer Design Day, !- SummerDesignDay Schedule:Day Name\n   *************   3479   Sp-Corner_Class_1_Pod_1_ZN_1_FLR_1 Sys-3 Flr-2 Sch-D HPlcmt-south ZN NECB System 3 PSZ Occ Sch Winter Design Day, !- WinterDesignDay Schedule:Day Name\n   ** Warning ** IP: IDF line~3479 Alpha Argument length exceeds maximum, will be truncated=  Sp-Corner_Class_1_Pod_1_ZN_1_FLR_1 Sys-3 Flr-2 Sch-D HPlcmt-south ZN NECB System 3 PSZ Occ Sch Winter Design Da\n   **   ~~~   ** Will be processed as Alpha=SP-CORNER_CLASS_1_POD_1_ZN_1_FLR_1 SYS-3 FLR-2 SCH-D HPLCMT-SOUTH ZN NECB SYSTEM 3 PSZ OCC SCH WINTER DESIGN DAY\n   ************* IDF Context for following error/warning message:\n   ************* Note -- lines truncated at 300 characters, if necessary...\n   *************   3468 Schedule:Week:Daily,\n   ************* indicated Name=Schedule:Week:Daily {c6b567a0-8d2e-4c38-8b6b-25c5f209c8f5}\n   ************* Only last 10 lines before error line shown.....\n   *************   3471   Sp-Corner_Class_1_Pod_1_ZN_1_FLR_1 Sys-3 Flr-2 Sch-D HPlcmt-south ZN NECB System 3 PSZ Occ Sch Monday, !- Monday Schedule:Day Name\n   *************   3472   Sp-Corner_Class_1_Pod_1_ZN_1_FLR_1 Sys-3 Flr-2 Sch-D HPlcmt-south ZN NECB System 3 PSZ Occ Sch Tuesday, !- Tuesday Schedule:Day Name\n   *************   3473   Sp-Corner_Class_1_Pod_1_ZN_1_FLR_1 Sys-3 Flr-2 Sch-D HPlcmt-south ZN NECB System 3 PSZ Occ Sch Wednesday, !- Wednesday Schedule:Day Name\n   *************   3474   Sp-Corner_Class_1_Pod_1_ZN_1_FLR_1 Sys-3 Flr-2 Sch-D HPlcmt-south ZN NECB System 3 PSZ Occ Sch Thursday, !- Thursday Schedule:Day Name\n   *************   3475   Sp-Corner_Class_1_Pod_1_ZN_1_FLR_1 Sys-3 Flr-2 Sch-D HPlcmt-south ZN NECB System 3 PSZ Occ Sch Friday, !- Friday Schedule:Day Name\n   *************   3476   Sp-Corner_Class_1_Pod_1_ZN_1_FLR_1 Sys-3 Flr-2 Sch-D HPlcmt-south ZN NECB System 3 PSZ Occ Sch Saturday, !- Saturday Schedule:Day Name\n   *************   3477   Sp-Corner_Class_1_Pod_1_ZN_1_FLR_1 Sys-3 Flr-2 Sch-D HPlcmt-south ZN NECB System 3 PSZ Occ Sch Default, !- Holiday Schedule:Day Name\n   *************   3478   Sp-Corner_Class_1_Pod_1_ZN_1_FLR_1 Sys-3 Flr-2 Sch-D HPlcmt-south ZN NECB System 3 PSZ Occ Sch Summer Design Day, !- SummerDesignDay Schedule:Day Name\n   *************   3479   Sp-Corner_Class_1_Pod_1_ZN_1_FLR_1 Sys-3 Flr-2 Sch-D HPlcmt-south ZN NECB System 3 PSZ Occ Sch Winter Design Day, !- WinterDesignDay Schedule:Day Name\n   *************   3480   Sp-Corner_Class_1_Pod_1_ZN_1_FLR_1 Sys-3 Flr-2 Sch-D HPlcmt-south ZN NECB System 3 PSZ Occ Sch Default, !- CustomDay1 Schedule:Day Name\n   ** Warning ** IP: IDF line~3480 Alpha Argument length exceeds maximum, will be truncated=  Sp-Corner_Class_1_Pod_1_ZN_1_FLR_1 Sys-3 Flr-2 Sch-D HPlcmt-south ZN NECB System 3 PSZ Occ Sch Defaul\n   **   ~~~   ** Will be processed as Alpha=SP-CORNER_CLASS_1_POD_1_ZN_1_FLR_1 SYS-3 FLR-2 SCH-D HPLCMT-SOUTH ZN NECB SYSTEM 3 PSZ OCC SCH DEFAULT\n   ************* IDF Context for following error/warning message:\n   ************* Note -- lines truncated at 300 characters, if necessary...\n   *************   3468 Schedule:Week:Daily,\n   ************* indicated Name=Schedule:Week:Daily {c6b567a0-8d2e-4c38-8b6b-25c5f209c8f5}\n   ************* Only last 10 lines before error line shown.....\n   *************   3472   Sp-Corner_Class_1_Pod_1_ZN_1_FLR_1 Sys-3 Flr-2 Sch-D HPlcmt-south ZN NECB System 3 PSZ Occ Sch Tuesday, !- Tuesday Schedule:Day Name\n   *************   3473   Sp-Corner_Class_1_Pod_1_ZN_1_FLR_1 Sys-3 Flr-2 Sch-D HPlcmt-south ZN NECB System 3 PSZ Occ Sch Wednesday, !- Wednesday Schedule:Day Name\n   *************   3474   Sp-Corner_Class_1_Pod_1_ZN_1_FLR_1 Sys-3 Flr-2 Sch-D HPlcmt-south ZN NECB System 3 PSZ Occ Sch Thursday, !- Thursday Schedule:Day Name\n   *************   3475   Sp-Corner_Class_1_Pod_1_ZN_1_FLR_1 Sys-3 Flr-2 Sch-D HPlcmt-south ZN NECB System 3 PSZ Occ Sch Friday, !- Friday Schedule:Day Name\n   *************   3476   Sp-Corner_Class_1_Pod_1_ZN_1_FLR_1 Sys-3 Flr-2 Sch-D HPlcmt-south ZN NECB System 3 PSZ Occ Sch Saturday, !- Saturday Schedule:Day Name\n   *************   3477   Sp-Corner_Class_1_Pod_1_ZN_1_FLR_1 Sys-3 Flr-2 Sch-D HPlcmt-south ZN NECB System 3 PSZ Occ Sch Default, !- Holiday Schedule:Day Name\n   *************   3478   Sp-Corner_Class_1_Pod_1_ZN_1_FLR_1 Sys-3 Flr-2 Sch-D HPlcmt-south ZN NECB System 3 PSZ Occ Sch Summer Design Day, !- SummerDesignDay Schedule:Day Name\n   *************   3479   Sp-Corner_Class_1_Pod_1_ZN_1_FLR_1 Sys-3 Flr-2 Sch-D HPlcmt-south ZN NECB System 3 PSZ Occ Sch Winter Design Day, !- WinterDesignDay Schedule:Day Name\n   *************   3480   Sp-Corner_Class_1_Pod_1_ZN_1_FLR_1 Sys-3 Flr-2 Sch-D HPlcmt-south ZN NECB System 3 PSZ Occ Sch Default, !- CustomDay1 Schedule:Day Name\n   *************   3481   Sp-Corner_Class_1_Pod_1_ZN_1_FLR_1 Sys-3 Flr-2 Sch-D HPlcmt-south ZN NECB System 3 PSZ Occ Sch Default; !- CustomDay2 Schedule:Day Name\n   ** Warning ** IP: IDF line~3481 Alpha Argument length exceeds maximum, will be truncated=  Sp-Corner_Class_1_Pod_1_ZN_1_FLR_1 Sys-3 Flr-2 Sch-D HPlcmt-south ZN NECB System 3 PSZ Occ Sch Defaul\n   **   ~~~   ** Will be processed as Alpha=SP-CORNER_CLASS_1_POD_1_ZN_1_FLR_1 SYS-3 FLR-2 SCH-D HPLCMT-SOUTH ZN NECB SYSTEM 3 PSZ OCC SCH DEFAULT\n   ************* IDF Context for following error/warning message:\n   ************* Note -- lines truncated at 300 characters, if necessary...\n   *************   3492 Schedule:Day:Interval,\n   ************* indicated Name=Sp-Corner_Class_1_Pod_1_ZN_1_FLR_1 Sys-3 Flr-2 Sch-D HPlcmt-south ZN NECB System 3 PSZ Occ Sch Default\n   ************* Only last 1 lines before error line shown.....\n   *************   3493   Sp-Corner_Class_1_Pod_1_ZN_1_FLR_1 Sys-3 Flr-2 Sch-D HPlcmt-south ZN NECB System 3 PSZ Occ Sch Default, !- Name\n   ** Warning ** IP: IDF line~3493 Alpha Argument length exceeds maximum, will be truncated=  Sp-Corner_Class_1_Pod_1_ZN_1_FLR_1 Sys-3 Flr-2 Sch-D HPlcmt-south ZN NECB System 3 PSZ Occ Sch Defaul\n   **   ~~~   ** Will be processed as Alpha=SP-CORNER_CLASS_1_POD_1_ZN_1_FLR_1 SYS-3 FLR-2 SCH-D HPLCMT-SOUTH ZN NECB SYSTEM 3 PSZ OCC SCH DEFAULT\n   ************* IDF Context for following error/warning message:\n   ************* Note -- lines truncated at 300 characters, if necessary...\n   *************   3499 Schedule:Day:Interval,\n   ************* indicated Name=Sp-Corner_Class_1_Pod_1_ZN_1_FLR_1 Sys-3 Flr-2 Sch-D HPlcmt-south ZN NECB System 3 PSZ Occ Sch Summer Design Day\n   ************* Only last 1 lines before error line shown.....\n   *************   3500   Sp-Corner_Class_1_Pod_1_ZN_1_FLR_1 Sys-3 Flr-2 Sch-D HPlcmt-south ZN NECB System 3 PSZ Occ Sch Summer Design Day, !- Name\n   ** Warning ** IP: IDF line~3500 Alpha Argument length exceeds maximum, will be truncated=  Sp-Corner_Class_1_Pod_1_ZN_1_FLR_1 Sys-3 Flr-2 Sch-D HPlcmt-south ZN NECB System 3 PSZ Occ Sch Summer Design Da\n   **   ~~~   ** Will be processed as Alpha=SP-CORNER_CLASS_1_POD_1_ZN_1_FLR_1 SYS-3 FLR-2 SCH-D HPLCMT-SOUTH ZN NECB SYSTEM 3 PSZ OCC SCH SUMMER DESIGN DAY\n   ************* IDF Context for following error/warning message:\n   ************* Note -- lines truncated at 300 characters, if necessary...\n   *************   3506 Schedule:Day:Interval,\n   ************* indicated Name=Sp-Corner_Class_1_Pod_1_ZN_1_FLR_1 Sys-3 Flr-2 Sch-D HPlcmt-south ZN NECB System 3 PSZ Occ Sch Winter Design Day\n   ************* Only last 1 lines before error line shown.....\n   *************   3507   Sp-Corner_Class_1_Pod_1_ZN_1_FLR_1 Sys-3 Flr-2 Sch-D HPlcmt-south ZN NECB System 3 PSZ Occ Sch Winter Design Day, !- Name\n   ** Warning ** IP: IDF line~3507 Alpha Argument length exceeds maximum, will be truncated=  Sp-Corner_Class_1_Pod_1_ZN_1_FLR_1 Sys-3 Flr-2 Sch-D HPlcmt-south ZN NECB System 3 PSZ Occ Sch Winter Design Da\n   **   ~~~   ** Will be processed as Alpha=SP-CORNER_CLASS_1_POD_1_ZN_1_FLR_1 SYS-3 FLR-2 SCH-D HPLCMT-SOUTH ZN NECB SYSTEM 3 PSZ OCC SCH WINTER DESIGN DAY\n   ************* IDF Context for following error/warning message:\n   ************* Note -- lines truncated at 300 characters, if necessary...\n   *************   3783 Schedule:Day:Interval,\n   ************* indicated Name=Sp-Corner_Class_1_Pod_1_ZN_1_FLR_2 Sys-3 Flr-1 Sch-D HPlcmt-south ZN NECB System 3 PSZ Occ Sch Sunday\n   ************* Only last 1 lines before error line shown.....\n   *************   3784   Sp-Corner_Class_1_Pod_1_ZN_1_FLR_2 Sys-3 Flr-1 Sch-D HPlcmt-south ZN NECB System 3 PSZ Occ Sch Sunday, !- Name\n   ** Warning ** IP: IDF line~3784 Alpha Argument length exceeds maximum, will be truncated=  Sp-Corner_Class_1_Pod_1_ZN_1_FLR_2 Sys-3 Flr-1 Sch-D HPlcmt-south ZN NECB System 3 PSZ Occ Sch Sunda\n   **   ~~~   ** Will be processed as Alpha=SP-CORNER_CLASS_1_POD_1_ZN_1_FLR_2 SYS-3 FLR-1 SCH-D HPLCMT-SOUTH ZN NECB SYSTEM 3 PSZ OCC SCH SUNDAY\n   ************* IDF Context for following error/warning message:\n   ************* Note -- lines truncated at 300 characters, if necessary...\n   *************   3790 Schedule:Day:Interval,\n   ************* indicated Name=Sp-Corner_Class_1_Pod_1_ZN_1_FLR_2 Sys-3 Flr-1 Sch-D HPlcmt-south ZN NECB System 3 PSZ Occ Sch Monday\n   ************* Only last 1 lines before error line shown.....\n   *************   3791   Sp-Corner_Class_1_Pod_1_ZN_1_FLR_2 Sys-3 Flr-1 Sch-D HPlcmt-south ZN NECB System 3 PSZ Occ Sch Monday, !- Name\n   ** Warning ** IP: IDF line~3791 Alpha Argument length exceeds maximum, will be truncated=  Sp-Corner_Class_1_Pod_1_ZN_1_FLR_2 Sys-3 Flr-1 Sch-D HPlcmt-south ZN NECB System 3 PSZ Occ Sch Monda\n   **   ~~~   ** Will be processed as Alpha=SP-CORNER_CLASS_1_POD_1_ZN_1_FLR_2 SYS-3 FLR-1 SCH-D HPLCMT-SOUTH ZN NECB SYSTEM 3 PSZ OCC SCH MONDAY\n   ************* IDF Context for following error/warning message:\n   ************* Note -- lines truncated at 300 characters, if necessary...\n   *************   3805 Schedule:Day:Interval,\n   ************* indicated Name=Sp-Corner_Class_1_Pod_1_ZN_1_FLR_2 Sys-3 Flr-1 Sch-D HPlcmt-south ZN NECB System 3 PSZ Occ Sch Tuesday\n   ************* Only last 1 lines before error line shown.....\n   *************   3806   Sp-Corner_Class_1_Pod_1_ZN_1_FLR_2 Sys-3 Flr-1 Sch-D HPlcmt-south ZN NECB System 3 PSZ Occ Sch Tuesday, !- Name\n   ** Warning ** IP: IDF line~3806 Alpha Argument length exceeds maximum, will be truncated=  Sp-Corner_Class_1_Pod_1_ZN_1_FLR_2 Sys-3 Flr-1 Sch-D HPlcmt-south ZN NECB System 3 PSZ Occ Sch Tuesda\n   **   ~~~   ** Will be processed as Alpha=SP-CORNER_CLASS_1_POD_1_ZN_1_FLR_2 SYS-3 FLR-1 SCH-D HPLCMT-SOUTH ZN NECB SYSTEM 3 PSZ OCC SCH TUESDAY\n   ************* IDF Context for following error/warning message:\n   ************* Note -- lines truncated at 300 characters, if necessary...\n   *************   3820 Schedule:Day:Interval,\n   ************* indicated Name=Sp-Corner_Class_1_Pod_1_ZN_1_FLR_2 Sys-3 Flr-1 Sch-D HPlcmt-south ZN NECB System 3 PSZ Occ Sch Wednesday\n   ************* Only last 1 lines before error line shown.....\n   *************   3821   Sp-Corner_Class_1_Pod_1_ZN_1_FLR_2 Sys-3 Flr-1 Sch-D HPlcmt-south ZN NECB System 3 PSZ Occ Sch Wednesday, !- Name\n   ** Warning ** IP: IDF line~3821 Alpha Argument length exceeds maximum, will be truncated=  Sp-Corner_Class_1_Pod_1_ZN_1_FLR_2 Sys-3 Flr-1 Sch-D HPlcmt-south ZN NECB System 3 PSZ Occ Sch Wednesda\n   **   ~~~   ** Will be processed as Alpha=SP-CORNER_CLASS_1_POD_1_ZN_1_FLR_2 SYS-3 FLR-1 SCH-D HPLCMT-SOUTH ZN NECB SYSTEM 3 PSZ OCC SCH WEDNESDAY\n   ************* IDF Context for following error/warning message:\n   ************* Note -- lines truncated at 300 characters, if necessary...\n   *************   3835 Schedule:Day:Interval,\n   ************* indicated Name=Sp-Corner_Class_1_Pod_1_ZN_1_FLR_2 Sys-3 Flr-1 Sch-D HPlcmt-south ZN NECB System 3 PSZ Occ Sch Thursday\n   ************* Only last 1 lines before error line shown.....\n   *************   3836   Sp-Corner_Class_1_Pod_1_ZN_1_FLR_2 Sys-3 Flr-1 Sch-D HPlcmt-south ZN NECB System 3 PSZ Occ Sch Thursday, !- Name\n   ** Warning ** IP: IDF line~3836 Alpha Argument length exceeds maximum, will be truncated=  Sp-Corner_Class_1_Pod_1_ZN_1_FLR_2 Sys-3 Flr-1 Sch-D HPlcmt-south ZN NECB System 3 PSZ Occ Sch Thursda\n   **   ~~~   ** Will be processed as Alpha=SP-CORNER_CLASS_1_POD_1_ZN_1_FLR_2 SYS-3 FLR-1 SCH-D HPLCMT-SOUTH ZN NECB SYSTEM 3 PSZ OCC SCH THURSDAY\n   ************* IDF Context for following error/warning message:\n   ************* Note -- lines truncated at 300 characters, if necessary...\n   *************   3850 Schedule:Day:Interval,\n   ************* indicated Name=Sp-Corner_Class_1_Pod_1_ZN_1_FLR_2 Sys-3 Flr-1 Sch-D HPlcmt-south ZN NECB System 3 PSZ Occ Sch Friday\n   ************* Only last 1 lines before error line shown.....\n   *************   3851   Sp-Corner_Class_1_Pod_1_ZN_1_FLR_2 Sys-3 Flr-1 Sch-D HPlcmt-south ZN NECB System 3 PSZ Occ Sch Friday, !- Name\n   ** Warning ** IP: IDF line~3851 Alpha Argument length exceeds maximum, will be truncated=  Sp-Corner_Class_1_Pod_1_ZN_1_FLR_2 Sys-3 Flr-1 Sch-D HPlcmt-south ZN NECB System 3 PSZ Occ Sch Frida\n   **   ~~~   ** Will be processed as Alpha=SP-CORNER_CLASS_1_POD_1_ZN_1_FLR_2 SYS-3 FLR-1 SCH-D HPLCMT-SOUTH ZN NECB SYSTEM 3 PSZ OCC SCH FRIDAY\n   ************* IDF Context for following error/warning message:\n   ************* Note -- lines truncated at 300 characters, if necessary...\n   *************   3865 Schedule:Day:Interval,\n   ************* indicated Name=Sp-Corner_Class_1_Pod_1_ZN_1_FLR_2 Sys-3 Flr-1 Sch-D HPlcmt-south ZN NECB System 3 PSZ Occ Sch Saturday\n   ************* Only last 1 lines before error line shown.....\n   *************   3866   Sp-Corner_Class_1_Pod_1_ZN_1_FLR_2 Sys-3 Flr-1 Sch-D HPlcmt-south ZN NECB System 3 PSZ Occ Sch Saturday, !- Name\n   ** Warning ** IP: IDF line~3866 Alpha Argument length exceeds maximum, will be truncated=  Sp-Corner_Class_1_Pod_1_ZN_1_FLR_2 Sys-3 Flr-1 Sch-D HPlcmt-south ZN NECB System 3 PSZ Occ Sch Saturda\n   **   ~~~   ** Will be processed as Alpha=SP-CORNER_CLASS_1_POD_1_ZN_1_FLR_2 SYS-3 FLR-1 SCH-D HPLCMT-SOUTH ZN NECB SYSTEM 3 PSZ OCC SCH SATURDAY\n   ************* IDF Context for following error/warning message:\n   ************* Note -- lines truncated at 300 characters, if necessary...\n   *************   3872 Schedule:Week:Daily,\n   ************* indicated Name=Schedule:Week:Daily {0cfd7a41-f109-44a7-9073-15b6f3ee1e16}\n   ************* Only last 2 lines before error line shown.....\n   *************   3873   Schedule:Week:Daily {0cfd7a41-f109-44a7-9073-15b6f3ee1e16}, !- Name\n   *************   3874   Sp-Corner_Class_1_Pod_1_ZN_1_FLR_2 Sys-3 Flr-1 Sch-D HPlcmt-south ZN NECB System 3 PSZ Occ Sch Sunday, !- Sunday Schedule:Day Name\n   ** Warning ** IP: IDF line~3874 Alpha Argument length exceeds maximum, will be truncated=  Sp-Corner_Class_1_Pod_1_ZN_1_FLR_2 Sys-3 Flr-1 Sch-D HPlcmt-south ZN NECB System 3 PSZ Occ Sch Sunda\n   **   ~~~   ** Will be processed as Alpha=SP-CORNER_CLASS_1_POD_1_ZN_1_FLR_2 SYS-3 FLR-1 SCH-D HPLCMT-SOUTH ZN NECB SYSTEM 3 PSZ OCC SCH SUNDAY\n   ************* IDF Context for following error/warning message:\n   ************* Note -- lines truncated at 300 characters, if necessary...\n   *************   3872 Schedule:Week:Daily,\n   ************* indicated Name=Schedule:Week:Daily {0cfd7a41-f109-44a7-9073-15b6f3ee1e16}\n   ************* Only last 3 lines before error line shown.....\n   *************   3873   Schedule:Week:Daily {0cfd7a41-f109-44a7-9073-15b6f3ee1e16}, !- Name\n   *************   3874   Sp-Corner_Class_1_Pod_1_ZN_1_FLR_2 Sys-3 Flr-1 Sch-D HPlcmt-south ZN NECB System 3 PSZ Occ Sch Sunday, !- Sunday Schedule:Day Name\n   *************   3875   Sp-Corner_Class_1_Pod_1_ZN_1_FLR_2 Sys-3 Flr-1 Sch-D HPlcmt-south ZN NECB System 3 PSZ Occ Sch Monday, !- Monday Schedule:Day Name\n   ** Warning ** IP: IDF line~3875 Alpha Argument length exceeds maximum, will be truncated=  Sp-Corner_Class_1_Pod_1_ZN_1_FLR_2 Sys-3 Flr-1 Sch-D HPlcmt-south ZN NECB System 3 PSZ Occ Sch Monda\n   **   ~~~   ** Will be processed as Alpha=SP-CORNER_CLASS_1_POD_1_ZN_1_FLR_2 SYS-3 FLR-1 SCH-D HPLCMT-SOUTH ZN NECB SYSTEM 3 PSZ OCC SCH MONDAY\n   ************* IDF Context for following error/warning message:\n   ************* Note -- lines truncated at 300 characters, if necessary...\n   *************   3872 Schedule:Week:Daily,\n   ************* indicated Name=Schedule:Week:Daily {0cfd7a41-f109-44a7-9073-15b6f3ee1e16}\n   ************* Only last 4 lines before error line shown.....\n   *************   3873   Schedule:Week:Daily {0cfd7a41-f109-44a7-9073-15b6f3ee1e16}, !- Name\n   *************   3874   Sp-Corner_Class_1_Pod_1_ZN_1_FLR_2 Sys-3 Flr-1 Sch-D HPlcmt-south ZN NECB System 3 PSZ Occ Sch Sunday, !- Sunday Schedule:Day Name\n   *************   3875   Sp-Corner_Class_1_Pod_1_ZN_1_FLR_2 Sys-3 Flr-1 Sch-D HPlcmt-south ZN NECB System 3 PSZ Occ Sch Monday, !- Monday Schedule:Day Name\n   *************   3876   Sp-Corner_Class_1_Pod_1_ZN_1_FLR_2 Sys-3 Flr-1 Sch-D HPlcmt-south ZN NECB System 3 PSZ Occ Sch Tuesday, !- Tuesday Schedule:Day Name\n   ** Warning ** IP: IDF line~3876 Alpha Argument length exceeds maximum, will be truncated=  Sp-Corner_Class_1_Pod_1_ZN_1_FLR_2 Sys-3 Flr-1 Sch-D HPlcmt-south ZN NECB System 3 PSZ Occ Sch Tuesda\n   **   ~~~   ** Will be processed as Alpha=SP-CORNER_CLASS_1_POD_1_ZN_1_FLR_2 SYS-3 FLR-1 SCH-D HPLCMT-SOUTH ZN NECB SYSTEM 3 PSZ OCC SCH TUESDAY\n   ************* IDF Context for following error/warning message:\n   ************* Note -- lines truncated at 300 characters, if necessary...\n   *************   3872 Schedule:Week:Daily,\n   ************* indicated Name=Schedule:Week:Daily {0cfd7a41-f109-44a7-9073-15b6f3ee1e16}\n   ************* Only last 5 lines before error line shown.....\n   *************   3873   Schedule:Week:Daily {0cfd7a41-f109-44a7-9073-15b6f3ee1e16}, !- Name\n   *************   3874   Sp-Corner_Class_1_Pod_1_ZN_1_FLR_2 Sys-3 Flr-1 Sch-D HPlcmt-south ZN NECB System 3 PSZ Occ Sch Sunday, !- Sunday Schedule:Day Name\n   *************   3875   Sp-Corner_Class_1_Pod_1_ZN_1_FLR_2 Sys-3 Flr-1 Sch-D HPlcmt-south ZN NECB System 3 PSZ Occ Sch Monday, !- Monday Schedule:Day Name\n   *************   3876   Sp-Corner_Class_1_Pod_1_ZN_1_FLR_2 Sys-3 Flr-1 Sch-D HPlcmt-south ZN NECB System 3 PSZ Occ Sch Tuesday, !- Tuesday Schedule:Day Name\n   *************   3877   Sp-Corner_Class_1_Pod_1_ZN_1_FLR_2 Sys-3 Flr-1 Sch-D HPlcmt-south ZN NECB System 3 PSZ Occ Sch Wednesday, !- Wednesday Schedule:Day Name\n   ** Warning ** IP: IDF line~3877 Alpha Argument length exceeds maximum, will be truncated=  Sp-Corner_Class_1_Pod_1_ZN_1_FLR_2 Sys-3 Flr-1 Sch-D HPlcmt-south ZN NECB System 3 PSZ Occ Sch Wednesda\n   **   ~~~   ** Will be processed as Alpha=SP-CORNER_CLASS_1_POD_1_ZN_1_FLR_2 SYS-3 FLR-1 SCH-D HPLCMT-SOUTH ZN NECB SYSTEM 3 PSZ OCC SCH WEDNESDAY\n   ************* IDF Context for following error/warning message:\n   ************* Note -- lines truncated at 300 characters, if necessary...\n   *************   3872 Schedule:Week:Daily,\n   ************* indicated Name=Schedule:Week:Daily {0cfd7a41-f109-44a7-9073-15b6f3ee1e16}\n   ************* Only last 6 lines before error line shown.....\n   *************   3873   Schedule:Week:Daily {0cfd7a41-f109-44a7-9073-15b6f3ee1e16}, !- Name\n   *************   3874   Sp-Corner_Class_1_Pod_1_ZN_1_FLR_2 Sys-3 Flr-1 Sch-D HPlcmt-south ZN NECB System 3 PSZ Occ Sch Sunday, !- Sunday Schedule:Day Name\n   *************   3875   Sp-Corner_Class_1_Pod_1_ZN_1_FLR_2 Sys-3 Flr-1 Sch-D HPlcmt-south ZN NECB System 3 PSZ Occ Sch Monday, !- Monday Schedule:Day Name\n   *************   3876   Sp-Corner_Class_1_Pod_1_ZN_1_FLR_2 Sys-3 Flr-1 Sch-D HPlcmt-south ZN NECB System 3 PSZ Occ Sch Tuesday, !- Tuesday Schedule:Day Name\n   *************   3877   Sp-Corner_Class_1_Pod_1_ZN_1_FLR_2 Sys-3 Flr-1 Sch-D HPlcmt-south ZN NECB System 3 PSZ Occ Sch Wednesday, !- Wednesday Schedule:Day Name\n   *************   3878   Sp-Corner_Class_1_Pod_1_ZN_1_FLR_2 Sys-3 Flr-1 Sch-D HPlcmt-south ZN NECB System 3 PSZ Occ Sch Thursday, !- Thursday Schedule:Day Name\n   ** Warning ** IP: IDF line~3878 Alpha Argument length exceeds maximum, will be truncated=  Sp-Corner_Class_1_Pod_1_ZN_1_FLR_2 Sys-3 Flr-1 Sch-D HPlcmt-south ZN NECB System 3 PSZ Occ Sch Thursda\n   **   ~~~   ** Will be processed as Alpha=SP-CORNER_CLASS_1_POD_1_ZN_1_FLR_2 SYS-3 FLR-1 SCH-D HPLCMT-SOUTH ZN NECB SYSTEM 3 PSZ OCC SCH THURSDAY\n   ************* IDF Context for following error/warning message:\n   ************* Note -- lines truncated at 300 characters, if necessary...\n   *************   3872 Schedule:Week:Daily,\n   ************* indicated Name=Schedule:Week:Daily {0cfd7a41-f109-44a7-9073-15b6f3ee1e16}\n   ************* Only last 7 lines before error line shown.....\n   *************   3873   Schedule:Week:Daily {0cfd7a41-f109-44a7-9073-15b6f3ee1e16}, !- Name\n   *************   3874   Sp-Corner_Class_1_Pod_1_ZN_1_FLR_2 Sys-3 Flr-1 Sch-D HPlcmt-south ZN NECB System 3 PSZ Occ Sch Sunday, !- Sunday Schedule:Day Name\n   *************   3875   Sp-Corner_Class_1_Pod_1_ZN_1_FLR_2 Sys-3 Flr-1 Sch-D HPlcmt-south ZN NECB System 3 PSZ Occ Sch Monday, !- Monday Schedule:Day Name\n   *************   3876   Sp-Corner_Class_1_Pod_1_ZN_1_FLR_2 Sys-3 Flr-1 Sch-D HPlcmt-south ZN NECB System 3 PSZ Occ Sch Tuesday, !- Tuesday Schedule:Day Name\n   *************   3877   Sp-Corner_Class_1_Pod_1_ZN_1_FLR_2 Sys-3 Flr-1 Sch-D HPlcmt-south ZN NECB System 3 PSZ Occ Sch Wednesday, !- Wednesday Schedule:Day Name\n   *************   3878   Sp-Corner_Class_1_Pod_1_ZN_1_FLR_2 Sys-3 Flr-1 Sch-D HPlcmt-south ZN NECB System 3 PSZ Occ Sch Thursday, !- Thursday Schedule:Day Name\n   *************   3879   Sp-Corner_Class_1_Pod_1_ZN_1_FLR_2 Sys-3 Flr-1 Sch-D HPlcmt-south ZN NECB System 3 PSZ Occ Sch Friday, !- Friday Schedule:Day Name\n   ** Warning ** IP: IDF line~3879 Alpha Argument length exceeds maximum, will be truncated=  Sp-Corner_Class_1_Pod_1_ZN_1_FLR_2 Sys-3 Flr-1 Sch-D HPlcmt-south ZN NECB System 3 PSZ Occ Sch Frida\n   **   ~~~   ** Will be processed as Alpha=SP-CORNER_CLASS_1_POD_1_ZN_1_FLR_2 SYS-3 FLR-1 SCH-D HPLCMT-SOUTH ZN NECB SYSTEM 3 PSZ OCC SCH FRIDAY\n   ************* IDF Context for following error/warning message:\n   ************* Note -- lines truncated at 300 characters, if necessary...\n   *************   3872 Schedule:Week:Daily,\n   ************* indicated Name=Schedule:Week:Daily {0cfd7a41-f109-44a7-9073-15b6f3ee1e16}\n   ************* Only last 8 lines before error line shown.....\n   *************   3873   Schedule:Week:Daily {0cfd7a41-f109-44a7-9073-15b6f3ee1e16}, !- Name\n   *************   3874   Sp-Corner_Class_1_Pod_1_ZN_1_FLR_2 Sys-3 Flr-1 Sch-D HPlcmt-south ZN NECB System 3 PSZ Occ Sch Sunday, !- Sunday Schedule:Day Name\n   *************   3875   Sp-Corner_Class_1_Pod_1_ZN_1_FLR_2 Sys-3 Flr-1 Sch-D HPlcmt-south ZN NECB System 3 PSZ Occ Sch Monday, !- Monday Schedule:Day Name\n   *************   3876   Sp-Corner_Class_1_Pod_1_ZN_1_FLR_2 Sys-3 Flr-1 Sch-D HPlcmt-south ZN NECB System 3 PSZ Occ Sch Tuesday, !- Tuesday Schedule:Day Name\n   *************   3877   Sp-Corner_Class_1_Pod_1_ZN_1_FLR_2 Sys-3 Flr-1 Sch-D HPlcmt-south ZN NECB System 3 PSZ Occ Sch Wednesday, !- Wednesday Schedule:Day Name\n   *************   3878   Sp-Corner_Class_1_Pod_1_ZN_1_FLR_2 Sys-3 Flr-1 Sch-D HPlcmt-south ZN NECB System 3 PSZ Occ Sch Thursday, !- Thursday Schedule:Day Name\n   *************   3879   Sp-Corner_Class_1_Pod_1_ZN_1_FLR_2 Sys-3 Flr-1 Sch-D HPlcmt-south ZN NECB System 3 PSZ Occ Sch Friday, !- Friday Schedule:Day Name\n   *************   3880   Sp-Corner_Class_1_Pod_1_ZN_1_FLR_2 Sys-3 Flr-1 Sch-D HPlcmt-south ZN NECB System 3 PSZ Occ Sch Saturday, !- Saturday Schedule:Day Name\n   ** Warning ** IP: IDF line~3880 Alpha Argument length exceeds maximum, will be truncated=  Sp-Corner_Class_1_Pod_1_ZN_1_FLR_2 Sys-3 Flr-1 Sch-D HPlcmt-south ZN NECB System 3 PSZ Occ Sch Saturda\n   **   ~~~   ** Will be processed as Alpha=SP-CORNER_CLASS_1_POD_1_ZN_1_FLR_2 SYS-3 FLR-1 SCH-D HPLCMT-SOUTH ZN NECB SYSTEM 3 PSZ OCC SCH SATURDAY\n   ************* IDF Context for following error/warning message:\n   ************* Note -- lines truncated at 300 characters, if necessary...\n   *************   3872 Schedule:Week:Daily,\n   ************* indicated Name=Schedule:Week:Daily {0cfd7a41-f109-44a7-9073-15b6f3ee1e16}\n   ************* Only last 9 lines before error line shown.....\n   *************   3873   Schedule:Week:Daily {0cfd7a41-f109-44a7-9073-15b6f3ee1e16}, !- Name\n   *************   3874   Sp-Corner_Class_1_Pod_1_ZN_1_FLR_2 Sys-3 Flr-1 Sch-D HPlcmt-south ZN NECB System 3 PSZ Occ Sch Sunday, !- Sunday Schedule:Day Name\n   *************   3875   Sp-Corner_Class_1_Pod_1_ZN_1_FLR_2 Sys-3 Flr-1 Sch-D HPlcmt-south ZN NECB System 3 PSZ Occ Sch Monday, !- Monday Schedule:Day Name\n   *************   3876   Sp-Corner_Class_1_Pod_1_ZN_1_FLR_2 Sys-3 Flr-1 Sch-D HPlcmt-south ZN NECB System 3 PSZ Occ Sch Tuesday, !- Tuesday Schedule:Day Name\n   *************   3877   Sp-Corner_Class_1_Pod_1_ZN_1_FLR_2 Sys-3 Flr-1 Sch-D HPlcmt-south ZN NECB System 3 PSZ Occ Sch Wednesday, !- Wednesday Schedule:Day Name\n   *************   3878   Sp-Corner_Class_1_Pod_1_ZN_1_FLR_2 Sys-3 Flr-1 Sch-D HPlcmt-south ZN NECB System 3 PSZ Occ Sch Thursday, !- Thursday Schedule:Day Name\n   *************   3879   Sp-Corner_Class_1_Pod_1_ZN_1_FLR_2 Sys-3 Flr-1 Sch-D HPlcmt-south ZN NECB System 3 PSZ Occ Sch Friday, !- Friday Schedule:Day Name\n   *************   3880   Sp-Corner_Class_1_Pod_1_ZN_1_FLR_2 Sys-3 Flr-1 Sch-D HPlcmt-south ZN NECB System 3 PSZ Occ Sch Saturday, !- Saturday Schedule:Day Name\n   *************   3881   Sp-Corner_Class_1_Pod_1_ZN_1_FLR_2 Sys-3 Flr-1 Sch-D HPlcmt-south ZN NECB System 3 PSZ Occ Sch Default, !- Holiday Schedule:Day Name\n   ** Warning ** IP: IDF line~3881 Alpha Argument length exceeds maximum, will be truncated=  Sp-Corner_Class_1_Pod_1_ZN_1_FLR_2 Sys-3 Flr-1 Sch-D HPlcmt-south ZN NECB System 3 PSZ Occ Sch Defaul\n   **   ~~~   ** Will be processed as Alpha=SP-CORNER_CLASS_1_POD_1_ZN_1_FLR_2 SYS-3 FLR-1 SCH-D HPLCMT-SOUTH ZN NECB SYSTEM 3 PSZ OCC SCH DEFAULT\n   ************* IDF Context for following error/warning message:\n   ************* Note -- lines truncated at 300 characters, if necessary...\n   *************   3872 Schedule:Week:Daily,\n   ************* indicated Name=Schedule:Week:Daily {0cfd7a41-f109-44a7-9073-15b6f3ee1e16}\n   ************* Only last 10 lines before error line shown.....\n   *************   3873   Schedule:Week:Daily {0cfd7a41-f109-44a7-9073-15b6f3ee1e16}, !- Name\n   *************   3874   Sp-Corner_Class_1_Pod_1_ZN_1_FLR_2 Sys-3 Flr-1 Sch-D HPlcmt-south ZN NECB System 3 PSZ Occ Sch Sunday, !- Sunday Schedule:Day Name\n   *************   3875   Sp-Corner_Class_1_Pod_1_ZN_1_FLR_2 Sys-3 Flr-1 Sch-D HPlcmt-south ZN NECB System 3 PSZ Occ Sch Monday, !- Monday Schedule:Day Name\n   *************   3876   Sp-Corner_Class_1_Pod_1_ZN_1_FLR_2 Sys-3 Flr-1 Sch-D HPlcmt-south ZN NECB System 3 PSZ Occ Sch Tuesday, !- Tuesday Schedule:Day Name\n   *************   3877   Sp-Corner_Class_1_Pod_1_ZN_1_FLR_2 Sys-3 Flr-1 Sch-D HPlcmt-south ZN NECB System 3 PSZ Occ Sch Wednesday, !- Wednesday Schedule:Day Name\n   *************   3878   Sp-Corner_Class_1_Pod_1_ZN_1_FLR_2 Sys-3 Flr-1 Sch-D HPlcmt-south ZN NECB System 3 PSZ Occ Sch Thursday, !- Thursday Schedule:Day Name\n   *************   3879   Sp-Corner_Class_1_Pod_1_ZN_1_FLR_2 Sys-3 Flr-1 Sch-D HPlcmt-south ZN NECB System 3 PSZ Occ Sch Friday, !- Friday Schedule:Day Name\n   *************   3880   Sp-Corner_Class_1_Pod_1_ZN_1_FLR_2 Sys-3 Flr-1 Sch-D HPlcmt-south ZN NECB System 3 PSZ Occ Sch Saturday, !- Saturday Schedule:Day Name\n   *************   3881   Sp-Corner_Class_1_Pod_1_ZN_1_FLR_2 Sys-3 Flr-1 Sch-D HPlcmt-south ZN NECB System 3 PSZ Occ Sch Default, !- Holiday Schedule:Day Name\n   *************   3882   Sp-Corner_Class_1_Pod_1_ZN_1_FLR_2 Sys-3 Flr-1 Sch-D HPlcmt-south ZN NECB System 3 PSZ Occ Sch Summer Design Day, !- SummerDesignDay Schedule:Day Name\n   ** Warning ** IP: IDF line~3882 Alpha Argument length exceeds maximum, will be truncated=  Sp-Corner_Class_1_Pod_1_ZN_1_FLR_2 Sys-3 Flr-1 Sch-D HPlcmt-south ZN NECB System 3 PSZ Occ Sch Summer Design Da\n   **   ~~~   ** Will be processed as Alpha=SP-CORNER_CLASS_1_POD_1_ZN_1_FLR_2 SYS-3 FLR-1 SCH-D HPLCMT-SOUTH ZN NECB SYSTEM 3 PSZ OCC SCH SUMMER DESIGN DAY\n   ************* IDF Context for following error/warning message:\n   ************* Note -- lines truncated at 300 characters, if necessary...\n   *************   3872 Schedule:Week:Daily,\n   ************* indicated Name=Schedule:Week:Daily {0cfd7a41-f109-44a7-9073-15b6f3ee1e16}\n   ************* Only last 10 lines before error line shown.....\n   *************   3874   Sp-Corner_Class_1_Pod_1_ZN_1_FLR_2 Sys-3 Flr-1 Sch-D HPlcmt-south ZN NECB System 3 PSZ Occ Sch Sunday, !- Sunday Schedule:Day Name\n   *************   3875   Sp-Corner_Class_1_Pod_1_ZN_1_FLR_2 Sys-3 Flr-1 Sch-D HPlcmt-south ZN NECB System 3 PSZ Occ Sch Monday, !- Monday Schedule:Day Name\n   *************   3876   Sp-Corner_Class_1_Pod_1_ZN_1_FLR_2 Sys-3 Flr-1 Sch-D HPlcmt-south ZN NECB System 3 PSZ Occ Sch Tuesday, !- Tuesday Schedule:Day Name\n   *************   3877   Sp-Corner_Class_1_Pod_1_ZN_1_FLR_2 Sys-3 Flr-1 Sch-D HPlcmt-south ZN NECB System 3 PSZ Occ Sch Wednesday, !- Wednesday Schedule:Day Name\n   *************   3878   Sp-Corner_Class_1_Pod_1_ZN_1_FLR_2 Sys-3 Flr-1 Sch-D HPlcmt-south ZN NECB System 3 PSZ Occ Sch Thursday, !- Thursday Schedule:Day Name\n   *************   3879   Sp-Corner_Class_1_Pod_1_ZN_1_FLR_2 Sys-3 Flr-1 Sch-D HPlcmt-south ZN NECB System 3 PSZ Occ Sch Friday, !- Friday Schedule:Day Name\n   *************   3880   Sp-Corner_Class_1_Pod_1_ZN_1_FLR_2 Sys-3 Flr-1 Sch-D HPlcmt-south ZN NECB System 3 PSZ Occ Sch Saturday, !- Saturday Schedule:Day Name\n   *************   3881   Sp-Corner_Class_1_Pod_1_ZN_1_FLR_2 Sys-3 Flr-1 Sch-D HPlcmt-south ZN NECB System 3 PSZ Occ Sch Default, !- Holiday Schedule:Day Name\n   *************   3882   Sp-Corner_Class_1_Pod_1_ZN_1_FLR_2 Sys-3 Flr-1 Sch-D HPlcmt-south ZN NECB System 3 PSZ Occ Sch Summer Design Day, !- SummerDesignDay Schedule:Day Name\n   *************   3883   Sp-Corner_Class_1_Pod_1_ZN_1_FLR_2 Sys-3 Flr-1 Sch-D HPlcmt-south ZN NECB System 3 PSZ Occ Sch Winter Design Day, !- WinterDesignDay Schedule:Day Name\n   ** Warning ** IP: IDF line~3883 Alpha Argument length exceeds maximum, will be truncated=  Sp-Corner_Class_1_Pod_1_ZN_1_FLR_2 Sys-3 Flr-1 Sch-D HPlcmt-south ZN NECB System 3 PSZ Occ Sch Winter Design Da\n   **   ~~~   ** Will be processed as Alpha=SP-CORNER_CLASS_1_POD_1_ZN_1_FLR_2 SYS-3 FLR-1 SCH-D HPLCMT-SOUTH ZN NECB SYSTEM 3 PSZ OCC SCH WINTER DESIGN DAY\n   ************* IDF Context for following error/warning message:\n   ************* Note -- lines truncated at 300 characters, if necessary...\n   *************   3872 Schedule:Week:Daily,\n   ************* indicated Name=Schedule:Week:Daily {0cfd7a41-f109-44a7-9073-15b6f3ee1e16}\n   ************* Only last 10 lines before error line shown.....\n   *************   3875   Sp-Corner_Class_1_Pod_1_ZN_1_FLR_2 Sys-3 Flr-1 Sch-D HPlcmt-south ZN NECB System 3 PSZ Occ Sch Monday, !- Monday Schedule:Day Name\n   *************   3876   Sp-Corner_Class_1_Pod_1_ZN_1_FLR_2 Sys-3 Flr-1 Sch-D HPlcmt-south ZN NECB System 3 PSZ Occ Sch Tuesday, !- Tuesday Schedule:Day Name\n   *************   3877   Sp-Corner_Class_1_Pod_1_ZN_1_FLR_2 Sys-3 Flr-1 Sch-D HPlcmt-south ZN NECB System 3 PSZ Occ Sch Wednesday, !- Wednesday Schedule:Day Name\n   *************   3878   Sp-Corner_Class_1_Pod_1_ZN_1_FLR_2 Sys-3 Flr-1 Sch-D HPlcmt-south ZN NECB System 3 PSZ Occ Sch Thursday, !- Thursday Schedule:Day Name\n   *************   3879   Sp-Corner_Class_1_Pod_1_ZN_1_FLR_2 Sys-3 Flr-1 Sch-D HPlcmt-south ZN NECB System 3 PSZ Occ Sch Friday, !- Friday Schedule:Day Name\n   *************   3880   Sp-Corner_Class_1_Pod_1_ZN_1_FLR_2 Sys-3 Flr-1 Sch-D HPlcmt-south ZN NECB System 3 PSZ Occ Sch Saturday, !- Saturday Schedule:Day Name\n   *************   3881   Sp-Corner_Class_1_Pod_1_ZN_1_FLR_2 Sys-3 Flr-1 Sch-D HPlcmt-south ZN NECB System 3 PSZ Occ Sch Default, !- Holiday Schedule:Day Name\n   *************   3882   Sp-Corner_Class_1_Pod_1_ZN_1_FLR_2 Sys-3 Flr-1 Sch-D HPlcmt-south ZN NECB System 3 PSZ Occ Sch Summer Design Day, !- SummerDesignDay Schedule:Day Name\n   *************   3883   Sp-Corner_Class_1_Pod_1_ZN_1_FLR_2 Sys-3 Flr-1 Sch-D HPlcmt-south ZN NECB System 3 PSZ Occ Sch Winter Design Day, !- WinterDesignDay Schedule:Day Name\n   *************   3884   Sp-Corner_Class_1_Pod_1_ZN_1_FLR_2 Sys-3 Flr-1 Sch-D HPlcmt-south ZN NECB System 3 PSZ Occ Sch Default, !- CustomDay1 Schedule:Day Name\n   ** Warning ** IP: IDF line~3884 Alpha Argument length exceeds maximum, will be truncated=  Sp-Corner_Class_1_Pod_1_ZN_1_FLR_2 Sys-3 Flr-1 Sch-D HPlcmt-south ZN NECB System 3 PSZ Occ Sch Defaul\n   **   ~~~   ** Will be processed as Alpha=SP-CORNER_CLASS_1_POD_1_ZN_1_FLR_2 SYS-3 FLR-1 SCH-D HPLCMT-SOUTH ZN NECB SYSTEM 3 PSZ OCC SCH DEFAULT\n   ************* IDF Context for following error/warning message:\n   ************* Note -- lines truncated at 300 characters, if necessary...\n   *************   3872 Schedule:Week:Daily,\n   ************* indicated Name=Schedule:Week:Daily {0cfd7a41-f109-44a7-9073-15b6f3ee1e16}\n   ************* Only last 10 lines before error line shown.....\n   *************   3876   Sp-Corner_Class_1_Pod_1_ZN_1_FLR_2 Sys-3 Flr-1 Sch-D HPlcmt-south ZN NECB System 3 PSZ Occ Sch Tuesday, !- Tuesday Schedule:Day Name\n   *************   3877   Sp-Corner_Class_1_Pod_1_ZN_1_FLR_2 Sys-3 Flr-1 Sch-D HPlcmt-south ZN NECB System 3 PSZ Occ Sch Wednesday, !- Wednesday Schedule:Day Name\n   *************   3878   Sp-Corner_Class_1_Pod_1_ZN_1_FLR_2 Sys-3 Flr-1 Sch-D HPlcmt-south ZN NECB System 3 PSZ Occ Sch Thursday, !- Thursday Schedule:Day Name\n   *************   3879   Sp-Corner_Class_1_Pod_1_ZN_1_FLR_2 Sys-3 Flr-1 Sch-D HPlcmt-south ZN NECB System 3 PSZ Occ Sch Friday, !- Friday Schedule:Day Name\n   *************   3880   Sp-Corner_Class_1_Pod_1_ZN_1_FLR_2 Sys-3 Flr-1 Sch-D HPlcmt-south ZN NECB System 3 PSZ Occ Sch Saturday, !- Saturday Schedule:Day Name\n   *************   3881   Sp-Corner_Class_1_Pod_1_ZN_1_FLR_2 Sys-3 Flr-1 Sch-D HPlcmt-south ZN NECB System 3 PSZ Occ Sch Default, !- Holiday Schedule:Day Name\n   *************   3882   Sp-Corner_Class_1_Pod_1_ZN_1_FLR_2 Sys-3 Flr-1 Sch-D HPlcmt-south ZN NECB System 3 PSZ Occ Sch Summer Design Day, !- SummerDesignDay Schedule:Day Name\n   *************   3883   Sp-Corner_Class_1_Pod_1_ZN_1_FLR_2 Sys-3 Flr-1 Sch-D HPlcmt-south ZN NECB System 3 PSZ Occ Sch Winter Design Day, !- WinterDesignDay Schedule:Day Name\n   *************   3884   Sp-Corner_Class_1_Pod_1_ZN_1_FLR_2 Sys-3 Flr-1 Sch-D HPlcmt-south ZN NECB System 3 PSZ Occ Sch Default, !- CustomDay1 Schedule:Day Name\n   *************   3885   Sp-Corner_Class_1_Pod_1_ZN_1_FLR_2 Sys-3 Flr-1 Sch-D HPlcmt-south ZN NECB System 3 PSZ Occ Sch Default; !- CustomDay2 Schedule:Day Name\n   ** Warning ** IP: IDF line~3885 Alpha Argument length exceeds maximum, will be truncated=  Sp-Corner_Class_1_Pod_1_ZN_1_FLR_2 Sys-3 Flr-1 Sch-D HPlcmt-south ZN NECB System 3 PSZ Occ Sch Defaul\n   **   ~~~   ** Will be processed as Alpha=SP-CORNER_CLASS_1_POD_1_ZN_1_FLR_2 SYS-3 FLR-1 SCH-D HPLCMT-SOUTH ZN NECB SYSTEM 3 PSZ OCC SCH DEFAULT\n   ************* IDF Context for following error/warning message:\n   ************* Note -- lines truncated at 300 characters, if necessary...\n   *************   3896 Schedule:Day:Interval,\n   ************* indicated Name=Sp-Corner_Class_1_Pod_1_ZN_1_FLR_2 Sys-3 Flr-1 Sch-D HPlcmt-south ZN NECB System 3 PSZ Occ Sch Default\n   ************* Only last 1 lines before error line shown.....\n   *************   3897   Sp-Corner_Class_1_Pod_1_ZN_1_FLR_2 Sys-3 Flr-1 Sch-D HPlcmt-south ZN NECB System 3 PSZ Occ Sch Default, !- Name\n   ** Warning ** IP: IDF line~3897 Alpha Argument length exceeds maximum, will be truncated=  Sp-Corner_Class_1_Pod_1_ZN_1_FLR_2 Sys-3 Flr-1 Sch-D HPlcmt-south ZN NECB System 3 PSZ Occ Sch Defaul\n   **   ~~~   ** Will be processed as Alpha=SP-CORNER_CLASS_1_POD_1_ZN_1_FLR_2 SYS-3 FLR-1 SCH-D HPLCMT-SOUTH ZN NECB SYSTEM 3 PSZ OCC SCH DEFAULT\n   ************* IDF Context for following error/warning message:\n   ************* Note -- lines truncated at 300 characters, if necessary...\n   *************   3903 Schedule:Day:Interval,\n   ************* indicated Name=Sp-Corner_Class_1_Pod_1_ZN_1_FLR_2 Sys-3 Flr-1 Sch-D HPlcmt-south ZN NECB System 3 PSZ Occ Sch Summer Design Day\n   ************* Only last 1 lines before error line shown.....\n   *************   3904   Sp-Corner_Class_1_Pod_1_ZN_1_FLR_2 Sys-3 Flr-1 Sch-D HPlcmt-south ZN NECB System 3 PSZ Occ Sch Summer Design Day, !- Name\n   ** Warning ** IP: IDF line~3904 Alpha Argument length exceeds maximum, will be truncated=  Sp-Corner_Class_1_Pod_1_ZN_1_FLR_2 Sys-3 Flr-1 Sch-D HPlcmt-south ZN NECB System 3 PSZ Occ Sch Summer Design Da\n   **   ~~~   ** Will be processed as Alpha=SP-CORNER_CLASS_1_POD_1_ZN_1_FLR_2 SYS-3 FLR-1 SCH-D HPLCMT-SOUTH ZN NECB SYSTEM 3 PSZ OCC SCH SUMMER DESIGN DAY\n   ************* IDF Context for following error/warning message:\n   ************* Note -- lines truncated at 300 characters, if necessary...\n   *************   3910 Schedule:Day:Interval,\n   ************* indicated Name=Sp-Corner_Class_1_Pod_1_ZN_1_FLR_2 Sys-3 Flr-1 Sch-D HPlcmt-south ZN NECB System 3 PSZ Occ Sch Winter Design Day\n   ************* Only last 1 lines before error line shown.....\n   *************   3911   Sp-Corner_Class_1_Pod_1_ZN_1_FLR_2 Sys-3 Flr-1 Sch-D HPlcmt-south ZN NECB System 3 PSZ Occ Sch Winter Design Day, !- Name\n   ** Warning ** IP: IDF line~3911 Alpha Argument length exceeds maximum, will be truncated=  Sp-Corner_Class_1_Pod_1_ZN_1_FLR_2 Sys-3 Flr-1 Sch-D HPlcmt-south ZN NECB System 3 PSZ Occ Sch Winter Design Da\n   **   ~~~   ** Will be processed as Alpha=SP-CORNER_CLASS_1_POD_1_ZN_1_FLR_2 SYS-3 FLR-1 SCH-D HPLCMT-SOUTH ZN NECB SYSTEM 3 PSZ OCC SCH WINTER DESIGN DAY\n   ************* IDF Context for following error/warning message:\n   ************* Note -- lines truncated at 300 characters, if necessary...\n   *************   4179 Schedule:Day:Interval,\n   ************* indicated Name=Sp-Corner_Class_1_Pod_2_ZN_1_FLR_1 Sys-3 Flr-2 Sch-D HPlcmt-south ZN NECB System 3 PSZ Occ Sch Sunday\n   ************* Only last 1 lines before error line shown.....\n   *************   4180   Sp-Corner_Class_1_Pod_2_ZN_1_FLR_1 Sys-3 Flr-2 Sch-D HPlcmt-south ZN NECB System 3 PSZ Occ Sch Sunday, !- Name\n   ** Warning ** IP: IDF line~4180 Alpha Argument length exceeds maximum, will be truncated=  Sp-Corner_Class_1_Pod_2_ZN_1_FLR_1 Sys-3 Flr-2 Sch-D HPlcmt-south ZN NECB System 3 PSZ Occ Sch Sunda\n   **   ~~~   ** Will be processed as Alpha=SP-CORNER_CLASS_1_POD_2_ZN_1_FLR_1 SYS-3 FLR-2 SCH-D HPLCMT-SOUTH ZN NECB SYSTEM 3 PSZ OCC SCH SUNDAY\n   ************* IDF Context for following error/warning message:\n   ************* Note -- lines truncated at 300 characters, if necessary...\n   *************   4186 Schedule:Day:Interval,\n   ************* indicated Name=Sp-Corner_Class_1_Pod_2_ZN_1_FLR_1 Sys-3 Flr-2 Sch-D HPlcmt-south ZN NECB System 3 PSZ Occ Sch Monday\n   ************* Only last 1 lines before error line shown.....\n   *************   4187   Sp-Corner_Class_1_Pod_2_ZN_1_FLR_1 Sys-3 Flr-2 Sch-D HPlcmt-south ZN NECB System 3 PSZ Occ Sch Monday, !- Name\n   ** Warning ** IP: IDF line~4187 Alpha Argument length exceeds maximum, will be truncated=  Sp-Corner_Class_1_Pod_2_ZN_1_FLR_1 Sys-3 Flr-2 Sch-D HPlcmt-south ZN NECB System 3 PSZ Occ Sch Monda\n   **   ~~~   ** Will be processed as Alpha=SP-CORNER_CLASS_1_POD_2_ZN_1_FLR_1 SYS-3 FLR-2 SCH-D HPLCMT-SOUTH ZN NECB SYSTEM 3 PSZ OCC SCH MONDAY\n   ************* IDF Context for following error/warning message:\n   ************* Note -- lines truncated at 300 characters, if necessary...\n   *************   4201 Schedule:Day:Interval,\n   ************* indicated Name=Sp-Corner_Class_1_Pod_2_ZN_1_FLR_1 Sys-3 Flr-2 Sch-D HPlcmt-south ZN NECB System 3 PSZ Occ Sch Tuesday\n   ************* Only last 1 lines before error line shown.....\n   *************   4202   Sp-Corner_Class_1_Pod_2_ZN_1_FLR_1 Sys-3 Flr-2 Sch-D HPlcmt-south ZN NECB System 3 PSZ Occ Sch Tuesday, !- Name\n   ** Warning ** IP: IDF line~4202 Alpha Argument length exceeds maximum, will be truncated=  Sp-Corner_Class_1_Pod_2_ZN_1_FLR_1 Sys-3 Flr-2 Sch-D HPlcmt-south ZN NECB System 3 PSZ Occ Sch Tuesda\n   **   ~~~   ** Will be processed as Alpha=SP-CORNER_CLASS_1_POD_2_ZN_1_FLR_1 SYS-3 FLR-2 SCH-D HPLCMT-SOUTH ZN NECB SYSTEM 3 PSZ OCC SCH TUESDAY\n   ************* IDF Context for following error/warning message:\n   ************* Note -- lines truncated at 300 characters, if necessary...\n   *************   4216 Schedule:Day:Interval,\n   ************* indicated Name=Sp-Corner_Class_1_Pod_2_ZN_1_FLR_1 Sys-3 Flr-2 Sch-D HPlcmt-south ZN NECB System 3 PSZ Occ Sch Wednesday\n   ************* Only last 1 lines before error line shown.....\n   *************   4217   Sp-Corner_Class_1_Pod_2_ZN_1_FLR_1 Sys-3 Flr-2 Sch-D HPlcmt-south ZN NECB System 3 PSZ Occ Sch Wednesday, !- Name\n   ** Warning ** IP: IDF line~4217 Alpha Argument length exceeds maximum, will be truncated=  Sp-Corner_Class_1_Pod_2_ZN_1_FLR_1 Sys-3 Flr-2 Sch-D HPlcmt-south ZN NECB System 3 PSZ Occ Sch Wednesda\n   **   ~~~   ** Will be processed as Alpha=SP-CORNER_CLASS_1_POD_2_ZN_1_FLR_1 SYS-3 FLR-2 SCH-D HPLCMT-SOUTH ZN NECB SYSTEM 3 PSZ OCC SCH WEDNESDAY\n   ************* IDF Context for following error/warning message:\n   ************* Note -- lines truncated at 300 characters, if necessary...\n   *************   4231 Schedule:Day:Interval,\n   ************* indicated Name=Sp-Corner_Class_1_Pod_2_ZN_1_FLR_1 Sys-3 Flr-2 Sch-D HPlcmt-south ZN NECB System 3 PSZ Occ Sch Thursday\n   ************* Only last 1 lines before error line shown.....\n   *************   4232   Sp-Corner_Class_1_Pod_2_ZN_1_FLR_1 Sys-3 Flr-2 Sch-D HPlcmt-south ZN NECB System 3 PSZ Occ Sch Thursday, !- Name\n   ** Warning ** IP: IDF line~4232 Alpha Argument length exceeds maximum, will be truncated=  Sp-Corner_Class_1_Pod_2_ZN_1_FLR_1 Sys-3 Flr-2 Sch-D HPlcmt-south ZN NECB System 3 PSZ Occ Sch Thursda\n   **   ~~~   ** Will be processed as Alpha=SP-CORNER_CLASS_1_POD_2_ZN_1_FLR_1 SYS-3 FLR-2 SCH-D HPLCMT-SOUTH ZN NECB SYSTEM 3 PSZ OCC SCH THURSDAY\n   ************* IDF Context for following error/warning message:\n   ************* Note -- lines truncated at 300 characters, if necessary...\n   *************   4246 Schedule:Day:Interval,\n   ************* indicated Name=Sp-Corner_Class_1_Pod_2_ZN_1_FLR_1 Sys-3 Flr-2 Sch-D HPlcmt-south ZN NECB System 3 PSZ Occ Sch Friday\n   ************* Only last 1 lines before error line shown.....\n   *************   4247   Sp-Corner_Class_1_Pod_2_ZN_1_FLR_1 Sys-3 Flr-2 Sch-D HPlcmt-south ZN NECB System 3 PSZ Occ Sch Friday, !- Name\n   ** Warning ** IP: IDF line~4247 Alpha Argument length exceeds maximum, will be truncated=  Sp-Corner_Class_1_Pod_2_ZN_1_FLR_1 Sys-3 Flr-2 Sch-D HPlcmt-south ZN NECB System 3 PSZ Occ Sch Frida\n   **   ~~~   ** Will be processed as Alpha=SP-CORNER_CLASS_1_POD_2_ZN_1_FLR_1 SYS-3 FLR-2 SCH-D HPLCMT-SOUTH ZN NECB SYSTEM 3 PSZ OCC SCH FRIDAY\n   ************* IDF Context for following error/warning message:\n   ************* Note -- lines truncated at 300 characters, if necessary...\n   *************   4261 Schedule:Day:Interval,\n   ************* indicated Name=Sp-Corner_Class_1_Pod_2_ZN_1_FLR_1 Sys-3 Flr-2 Sch-D HPlcmt-south ZN NECB System 3 PSZ Occ Sch Saturday\n   ************* Only last 1 lines before error line shown.....\n   *************   4262   Sp-Corner_Class_1_Pod_2_ZN_1_FLR_1 Sys-3 Flr-2 Sch-D HPlcmt-south ZN NECB System 3 PSZ Occ Sch Saturday, !- Name\n   ** Warning ** IP: IDF line~4262 Alpha Argument length exceeds maximum, will be truncated=  Sp-Corner_Class_1_Pod_2_ZN_1_FLR_1 Sys-3 Flr-2 Sch-D HPlcmt-south ZN NECB System 3 PSZ Occ Sch Saturda\n   **   ~~~   ** Will be processed as Alpha=SP-CORNER_CLASS_1_POD_2_ZN_1_FLR_1 SYS-3 FLR-2 SCH-D HPLCMT-SOUTH ZN NECB SYSTEM 3 PSZ OCC SCH SATURDAY\n   ************* IDF Context for
[...]
cinQT/oyKdRQ5xrHo/k06ghzjUPVfJp1LCTa9IqnUbpF0qqpVWLT5gwSNBpFZsEPRhsEvRYsEnQaRWbBJ1WsUnQaRWbBJ1WsUnQyy2bhCat4tOgl1s+DXq55dOg0yo+DTqt4tOg0yo+DTqt4tOg0yo+DTqt4tOoIc41aRWfRg1xrkmr+DRq2Mk1aZVOo7QQfLW0alEpnkGCTqvYJOjBYJOgx4JNgk6r2CTotIpNgk6r2CTotIpNgl5u2SQ0aRWfBr3c8mnQyy2fBp1W8WnQaRWfBp1W8WnQaRWfBp1W8WnQaRWfRg1xrkmr+DRqiHNNWsWnUcNOrkmrdBql9XarpVWLgrwMEnRaxSZBDwabBD0WbBJ0WsUmQadVbBJ0WsUmQadVbBL0cssmoUmr+DTo5ZZPg15u+TTotIpPg06r+DTotIpPg06r+DTotIpPg06r+DRqiHNNWsWnUUOca9IqPo0adnJNWqXTKC1rWC2tWtQ9ZJCg0yo2CXow2CTosWCToNMqNgk6rWKToNMqNgk6rWKToJdbNgltsTUuDV21Ki4NXSErLg1djSsuDV35Ky4NXc03Lg1dOTguDV2lOC4NXRE5Lo0a4lxbeo5Lo4Y41xas49KoYSfXpFUrje9VKrwuKzqLIxHJ+1UF2aJwbCO9GzeLCrClpWJXZaFTmb2PZ5GfNrrtpnCcblN01G9ut1q52Ycc46nate/3vUyO42R+/BCki7LKT/dfofZ07uA88WVyMVNVjis3VBzzlxyfpJfOErnAUIWal/2+4brfMMMMM8wwwwwzzDDDDDPMMMMMM8wwwwwzzDDDDDPMMMMMM8wwwwwzzDDDDDPMMMMMM8wwwwwzzDDDDDPMMMMMM8wwwwwzzDD/pcxzO76TSRL48pOnXqx17Pb/+b6qejU2fflq7KVMApkuX6+1mqsXiKdhnNlhEMnSV2TT197TLX+zNrWLT89P49DLgjjKoaw0k9PWtRzFibSqvfn8UY5l5L+8ocW5Rq/dFB315nJbvcisflihHGUKrMT1yq09GMvsNMpU/+QSo1k0LEgb2+KPEhcrQvnU+qr0XW51BCPRyCZBaqfFqFQTUsezRnbef6fecNL4L7CptxW+enU8Z1/6HUzjNFAOT/LTVe5mdSg3r1Al8b0Z0goriHyp4qHlNA1br46bdRuOAhmq+dZY9ukiTsZJPJtKX/z8s/jb8vyDPZh46fL9dxVg28+t81eteYfY3nh8pjTsUEbjbCLeCVf8U1jHYWiJw5dXpGEwlI2Ws33V/r5dGm9/upM4EY2b/Fbav4ibXGY5VZe66tzf8xXHfIDUoabx0t/VzXf7h5yLo6OjReet57Hwuhz2G9NbXR3XifR+rNP40bCN6fWqv5Z3d6SmtZoMy5lSFHKwB16aBuNI+n1VIiK9Knry+3pduRro6SydNNYdi3xIDxfjuX4kheFhlbu01ZXrqqRZEv+Q1XQW166rFE+9YZDNq0ktL177rgqJldS6XlYLyctlZZ3wMF581LEK55cLj2gJx9SbSbhVZ31sFrtqpesfy3IKdezsiC+/fxX/Pv/9QlyeX3z97fOv4uP5r7/1xYfTi9NqDs7yVVs+eCpFE1ks0jjJRDS7zefBUBQlTVLhpcM8eQmicQWPq75Xfp7tzF5TXFdfXBKZzZJITL0klWdh7GUNTy352/lQPjt3XZyr1JnlKdoz2eUtlDl+3Gyll6f8swj3ItgbW74cebMwE9MkztcwudUUWz/t7/f7p6dbGy48AxzgAAc4wAEOcIADHOAABzh/TRyRzm7zP4GFL9VJ4XtzRZRIHzSgAQ1oQAMa0IAGNKABDWhAo6e5Lx7N+h+a63AmgQMc4AAHOMABDnCAAxzgAAc46+A8fTfQUd8NvJxR3w3sOMX/sB0f7+4eHIAUpCAFKUhBClKQghSkIAUpSEEK0rdB6hakXkaRtgvSTsd193sgBSlIQQpSkIIUpCAFKUhBClKQgvRtkHYU6VkSEKTuQUHqOHt7nQ5IQQpSkIIUpCAFKUhBClKQghSkIH0bpLuK9OtkRpHuF6QH+dF9D1KQghSkIAUpSEEKUpCCFKQgBSlI3wZpV5H+S/oU6V5BenLS7+/tgRSkIAUpSEEKUpCCFKQgBSlIQQrSt0HaK/5lYiYp0l5B2u/3eiAFKUhBClKQghSkIAUpSEEKUpCC9K2Q7inSTzFVWdDtFqT7+67b7YIUpCAFKUhBClKQghSkIAUpSEEK0tpIVyh+4t03Sp092FmQhfJy4k2lncmHrLH1IZ4laTnG/M8tT4JbGaVBHIUyLTyUuNjZEce+LzxReBL3QTYRaXwrhd8paZnejW1vOpWR37CUtrVd0mB12F6WJQ3rwWqKXtuw0Txv5FZvlGbzUC7wWl40nMRJ3t4K5ciAduljFEdZ614G40mmfFzHoV/dx2JsLqetT7MwG/TDfI4O3MGX2M9/fvs8cAZnHy8Grricp62OOAuTliMuh5PWifjwJRzeZq0oTvJx+fZZfD7tv1eXZfJWdMSXy2/ifDhU125t60b63U46TIJp9g/ymnc7fnD3uplsQzvLfYnAP7KGKgz6ec95QSSTgbO3a4miP48sP0inoTc/DKIwt7Wuw3j44xeLBsy9Lu5BZPNp3l516c6Nd+ctzmpbquPOS9SUFUfCD26nobQjeX95N25YP70C2RS77XbxozQGlV/fy7zc8dUfVuhdy9A6tHw58vKhFtMkHgWhtJoLy+DBOnTsdtO688KZXP4+VEtV3iZfffr901PrsVnJj8vkp8PkZ5fJT5fJT4/Jzx6Tn30mPwdMfpw2lyOuGe1wTWmHa047XJPa4ZrVDte0drjmtcM1sR2ume1yzWyXba3mmtku18x2jWa2SGe3ty++XV1pR0ukb+CG7CMzN2QPmbkh+8fMDRn3Zm7IqDdzQ8a8mRsy4s3ckPFu5obeyAz9MM1jehsz9MM0k+lNzNAP01ymtzBDP0yzmd7ADP0wzWd6+zL0w7UuM81neu8y9FN9Pt8HUWa+bV2rU9X9kN1j6IfsHkM/ZPcY+iHD3dAPGe6GfshwN/RDhruhHzLcDf3Q+5epI64ZTe9gpo645jS9h5k64prV9C5m6ohrXtP7mKkjrplN72SmjtjWaq6ZTW9mpo6qz+yn/8wo/dgwtc21X/yht/gaMYOEu3mJzuYldjcv0d28RG/zEnubl9jfvMTB5iVe7Oyb0qghvp0aAtypIcKdGkLcqSHGnRqC3Kkhyp0awtypIc7dGuLcrWMfryHO3Rri3F0vzku/6VgtrVp89JFBgh4NNgl6MNgk6LFgk6CXXDYJesVlk6AXXDYJer1lk6CXWzYJTVrFp1FDfGvSKj6NGiJck1bxadQQ45q0ik+jhijXpFV8GjXEuSat4tOoYx+vIc41aRWfxnpxXvrprGpp1eLbWgwS9GiwSdCDwSZBjwWbBL3ksknQKy6bBL3gsknQ6y2bBL3cskloHgjk06CfqOLToB+24tOgn8Pi06Af0eLToJ9L5NOgH1nk06CfZuTToB905NOoIc41j0fyadQQ55qHKvk0atjJNWmVTqP0CyXV0qrFJ0wYJOi0ik2CHgw2CXos2CTotIpNgk6r2CTotIpNgk6r2CTo5ZZNQpNW8WnQyy2fBr3c8mnQaRWfBp1W8WnQaRWfBp1W8WnQaRWfBp1W8WnUEOeatIpPo4Y416RVfBo17OSatEqnUVoIvlpatagUzyBBp1VsEvRgsEnQY8EmQadVbBJ0WsUmQadVbBJ0WsUmQS+3bBKatIpPg15u+TTo5ZZPg06r+DTotIpPg06r+DTotIpPg06r+DTotIpPo4Y416RVfBo1xLkmreLTqGEn16RVOo3ServV0qpFQV4GCTqtYpOgB4NNgh4LNgk6rWKToNMqNgk6rWKToNMqNgl6uWWT0KRVfBr0csunQS+3fBp0WsWnQadVfBp0WsWnQadVfBp0WsWnQadVfBo1xLkmreLTqCHONWkVn0YNO7kmrdJplJY1rJZWLeoeMkjQaRWbBD0YbBL0WLBJ0GkVmwSdVrFJ0GkVmwSdVrFJ0Mstm4S22BqXhq5aFZeGrpAVl4auxhWXhq78FZeGruYbl4auHByXhq5SHJeGrogcl0YNca4tPcelUUOcawvWcWnUsJNr0qqVxvcqFV6XFZ3FkYjk/aqCbFE4tpHejZtFBdjSUrGrstCpzN7Hs8hPG912UzhOtyk66je3W63c7EOO8VTt2vf7XibHcTI/fgjSRVnlp/uvUHs6d3Ce+DK5mKkqx5UbKo75S45P0ktniVxgqELNy37fcN1vmGGGGWaYYYYZZphhhhlmmGGGGWaYYYYZZphhhhlmmGGGGWaYYYYZZphhhhlmmGGGGWaYYYYZZphhhhlmmGGGGWaYYYYZZpj/Uua5Hd/JJAl8+clTL9Y6dvv/fF9VvRqbvnw19lImgUyXr9dazdULxNMwzuwwiGTpK7Lpa+/plr9Zm9rFp+encehlQRzlUFaayWnrWo7iRFrV3nz+KMcy8l/e0OJco9duio56c7mtXmRWP6xQjjIFVuJ65dYejGV2GmWqf3KJ0SwaFqSNbfFHiYsVoXxqfVX6Lrc6gpFoZJMgtdNiVKoJqeNZIzvvv1NvOGn8F9jU2wpfvTqesy/9DqZxGiiHJ/npKnezOpSbV6iS+N4MaYUVRL5U8dBymoatV8fNug1HgQzVfGss+3QRJ+Mknk2lL37+Wfxtef7BHky8dPn+uwqw7efW+avWvENsbzw+Uxp2KKNxNhHvhCv+KazjMLTE4csr0jAYykbL2b5qf98ujbc/3UmciMZNfivtX8RNLrOcqktdde7v+YpjPkDqUNN46e/q5rv9Q87F0dHRovPW81h4XQ77jemtro7rRHo/1mn8aNjG9HrVX8u7O1LTWk2G5UwpCjnYAy9Ng3Ek/b4qEZFeFT35fb2uXA30dJZOGuuORT6kh4vxXD+SwvCwyl3a6sp1VdIsiX/IajqLa9dViqfeMMjm1aSWF699V4XESmpdL6uF5OWysk54GC8+6liF88uFR7SEY+rNJNyqsz42i1210vWPZTmFOnZ2xJffv4p/n/9+IS7PL77+9vlX8fH819/64sPpxWk1B2f5qi0fPJWiiSwWaZxkIprd5vNgKIqSJqnw0mGevATRuILHVd8rP892Zq8prqsvLonMZkkkpl6SyrMw9rKGp5b87Xwon527Ls5V6szyFO2Z7PIWyhw/brbSy1P+WYR7EeyNLV+OvFmYiWkS52uY3GqKrZ/29/v909OtDReeAQ5wgAMc4AAHOMABDnCAA5y/Jo5IZ7f5n8DCl+qk8L25IkqkDxrQgAY0oAENaEADGtCABjSg0dPcF49m/Q/NdTiTwAEOcIADHOAABzjAAQ5wgAOcdXCevhvoqO8GXs6o7wZ2nOJ/2I6Pd3cPDkAKUpCCFKQgBSlIQQpSkIIUpCAF6dsgdQtSL6NI2wVpp+O6+z2QghSkIAUpSEEKUpCCFKQgBSlIQfo2SDuK9CwJCFL3oCB1nL29TgekIAUpSEEKUpCCFKQgBSlIQQpSkL4N0l1F+nUyo0j3C9KD/Oi+BylIQQpSkIIUpCAFKUhBClKQghSkb4O0q0j/JX2KdK8gPTnp9/f2QApSkIIUpCAFKUhBClKQghSkIAXp2yDtFf8yMZMUaa8g7fd7PZCCFKQgBSlIQQpSkIIUpCAFKUhB+lZI9xTpp5iqLOh2C9L9fdftdkEKUpCCFKQgBSlIQQpSkIIUpCAFaW2kKxQ/8e4bpc4e7CzIQnk58abSzuRD1tj6EM+StBxj/ueWJ8GtjNIgjkKZFh5KXOzsiGPfF54oPIn7IJuINL6Vwu+UtEzvxrY3ncrIb1hK29ouabA6bC/Lkob1YDVFr23YaJ43cqs3SrN5KBd4LS8aTuIkb2+FcmRAu/QxiqOsdS+D8SRTPq7j0K/uYzE2l9PWp1mYDfphPkcH7uBL7A86g2+fB87g7OPFwBGX87TVEWdh0nLF5XDSOhEfvoTD26wVxUk+Lt8+i8+n/ffqskzeio74cvlNnA+H6tqtbd1Iv9tJh0kwzf5BXvNuxw/uXjeTbWhnuS8R+EfWUIVBP+85L4hkMnD2upYo+vPI8oN0GnrzwyAKc1vrOoyHP36xaMDc6+IeRDaf5u1Vl+7ceHfe4qy2pTruvERNWXEk/OB2Gko7kveXd+OG9dMrkE2x224XP0pjUPn1vczLHV/9YYXetQytQ8uXIy8fajFN4lEQSqu5sAwerEPHbjetOy+cyeXvQ7VU5W3y1affPz21HpuV/LhMfjpMfnaZ/HSZ/PSY/Owx+dln8nPA5MdpcznimtEO15R2uOa0wzWpHa5Z7XBNa4drXjtcE9vhmtku18x22dZqrpntcs1s12hmi3R2e/vi29WVdrRE+gZuyD4yc0P2kJkbsn/M3JBxb+aGjHozN2TMm7khI97MDRnvZm7ojczQD9M8prcxQz9MM5nexAz9MM1legsz9MM0m+kNzNAP03ymty9DP1zrMtN8pvcuQz/V5/N9EGXm29a1OlXdD9k9hn7I7jH0Q3aPoR8y3A39kOFu6IcMd0M/ZLgb+iHD3dAPvX+ZOuKa0fQOZuqIa07Te5ipI65ZTe9ipo645jW9j5k64prZ9E5m6ohtreaa2fRmZuqo+sx++s+M0o8NU9tc+8UfeouvETNIuJuX6GxeYnfzEt3NS/Q2L7G3eYn9zUscbF7ixc6+KY0a4tupIcCdGiLcqSHEnRpi3KkhyJ0aotypIcydGuLcrSHO3Tr28Rri3K0hzt314rz0m47V0qrFRx8ZJOjRYJOgB4NNgh4LNgl6yWWToFdcNgl6wWWToNdbNgl6uWWT0KRVfBo1xLcmreLTqCHCNWkVn0YNMa5Jq/g0aohyTVrFp1FDnGvSKj6NOvbxGuJck1bxaawX56WfzqqWVi2+rcUgQY8GmwQ9GGwS9FiwSdBLLpsEveKySdALLpsEvd6ySdDLLZuE5oFAPg36iSo+DfphKz4N+jksPg36ES0+Dfq5RD4N+pFFPg36aUY+DfpBRz6NGuJc83gkn0YNca55qJJPo4adXJNW6TRKv1BSLa1afMKEQYJOq9gk6MFgk6DHgk2CTqvYJOi0ik2CTqvYJOi0ik2CXm7ZJDRpFZ8GvdzyadDLLZ8GnVbxadBpFZ8GnVbxadBpFZ8GnVbxadBpFZ9GDXGuSav4NGqIc01axadRw06uSat0GqWF4KulVYtK8QwSdFrFJkEPBpsEPRZsEnRaxSZBp1VsEnRaxSZBp1VsEvRyyyahSav4NOjllk+DXm75NOi0ik+DTqv4NOi0ik+DTqv4NOi0ik+DTqv4NGqIc01axadRQ5xr0io+jRp2ck1apdMorbdbLa1aFORlkKDTKjYJejDYJOixYJOg0yo2CTqtYpOg0yo2CTqtYpOgl1s2CU1axadBL7d8GvRyy6dBp1V8GnRaxadBp1V8GnRaxadBp1V8GnRaxadRQ5xr0io+jRriXJNW8WnUsJNr0iqdRmlZw2pp1aLuIYMEnVaxSdCDwSZBjwWbBJ1WsUnQaRWbBJ1WsUnQaRWbBL3cskloi61xaeiqVXFp6ApZcWnoalxxaejKX3Fp6Gq+cWnoysFxaegqxXFp6IrIcWnUEOfa0nNcGjXEubZgHZdGDTu5Jq1aaXyvUuF1WdFZHIlI3q8qyBaFYxvp3bhZVIAtLRW7Kgudyux9PIv8tNFtN4XjdJuio35zu9XKzT7kGE/Vrn2/72VyHCfz44cgXZRVfrr/CrWncwfniS+Ti5mqcly5oeKYv+T4JL10lsgFhirUvOz3Ddf9hhlmmGGGGWaYYYYZZphhhhlmmGGGGWaYYYYZZphhhhlmmGGGGWaYYYYZZphhhhlmmGGGGWaYYYYZZphhhhlmmGGGGWaYYYb5L2We2/GdTJLAl5889WKtY7f/z/dV1aux6ctXYy9lEsh0+Xqt1Vy9QDwN48wOg0iWviKbvvaebvmbtaldfHp+GodeFsRRDmWlmZy2ruUoTqRV7c3nj3IsI//lDS3ONXrtpuioN5fb6kVm9cMK5ShTYCWuV27twVhmp1Gm+ieXGM2iYUHa2BZ/lLhYEcqn1lel73KrIxiJRjYJUjstRqWakDqeNbLz/jv1hpPGf4FNva3w1avjOfvS72Aap4FyeJKfrnI3q0O5eYUqie/NkFZYQeRLFQ8tp2nYenXcrNtwFMhQzbfGsk8XcTJO4tlU+uLnn8Xflucf7MHES5fvv6sA235unb9qzTvE9sbjM6VhhzIaZxPx7j/tnW1v28bWtb8/v2IOC9QyKski5ffGLRzFTgIkcWAnKBojEChxJNGmSIGkbAuF//vNoSQfu/EmOdQWe9xn8UOaapNrXZyZPbNbkSNhid+Fcex5hjh8ekbkuX1Za5ibl63vm7n59sOdBKGoXSW30vpVXCU2i6G68FWf/ZLMOPodpA41jBd6l1ffm9dyJo6OjuaNV04xVV10+5XurS6PXijt6zIX32teo3u+aq/F3R2pYa0Gw2KkpBs5NLt2FLlDXzodtUVEdJm25PdyTbns6Mk0GtXK9kXSpYfz/iyfSZ53WOQum+rMsi5RHAbXspjP/NyyTsHE7rvxrJjV4uTSd5VaLK3KqiwnkqfTSpn00J581LFM56cTj2gIU1dNJ92Ks97X01W10Pn3eTWFOra2xOevX8SfZ1/PxcXZ+Zf3n96KD2dv33fEu5Pzk2ICp8msLe9sVaKJOBBREMbCn46TcdAX6ZYmkbCjflK8uP6wgOKy7ZXOo5XZrote8ckllPE09MXEDiN56gV2XLPVlL+ZdOWjz3rpZ4UaM79Ee2S7uIU84fv17vTyUH+m6Z4me23DkQN76sViEgbJHCY36mLjp/39TufkZGPNG88ABzjAAQ5wgAMc4AAHOMABzr8TR0TTcfKfwMKR6kPh2DNFFEoHNKABDWhAAxrQgAY0oAENaECTTXObPpr1N5qeN5XAAQ5wgAMc4AAHOMABDnCAA5wyOA+/G2iq3w28mFK/G9g202/Yjo+3tw8OQApSkIIUpCAFKUhBClKQghSkIAXpyyC1UlI7pkhbKWm7bVn7uyAFKUhBClKQghSkIAUpSEEKUpCC9GWQthXpaegSpNZBSmqae3vtNkhBClKQghSkIAUpSEEKUpCCFKQgfRmk24r0y2hKke6npAfJsfMapCAFKUhBClKQghSkIAUpSEEKUpC+DNIdRfqHdCjSvZT0zZtOZ28PpCAFKUhBClKQghSkIAUpSEEKUpC+DNLd9P9MTCVFupuSdjq7uyAFKUhBClKQghSkIAUpSEEKUpCC9KWQ7inSjwG1s6C1k5Lu71vWzg5IQQpSkIIUpCAFKUhBClKQghSkIK2MdInihPZtLVfsrhm7sScvRvZENmN5F9c23gXTMMrHmP145Rt3LP3IDXxPRqlCjsTWljh2HGGLVEncuvFIRMFYCqedc2V0M2zak4n0nZqhvI3NnAuWR9OO47Bm3Bl1sdvSvGiWXGQVvyiKZ56c4zVsvz8KwuR6w5MDDdqFxiDw48atdIejWGn0As8prjHvm4tJ4+PUi7sdLxmjXav7OXC67e63T12ze/rhvGuJi1nUaItTL2yY4qI/arwR7z57/XHc8IMw6Zdvn8Snk85rdVosx6ItPl98E2f9vjp3YzOrp19tRf3QncS/kee82nLcm+fD5DW0WKIlXOfI6Ks06CQtZ7u+DLvm3q4h0vY8Mhw3mnj27ND1vSTW6HlB//pXgwZMVOf3IOLZJLleNenWlX1jzz/NvFIdN3aohqw4Eo47nniy6cvbi5thzfjpGci62G610j9yc1DpOnZsJ8KXfxme3ZOecWg4cmAnXS0mYTBwPWnU55HunXFoNlt148b2pnLx976aqpJrktmn0zk5Me7rhXQsJp02k842k84Ok84uk84ek84+k84Bk47Z4hLiGtEm15A2uca0yTWoTa5RbXINa5NrXJtcA9vkGtkW18i22OZqrpFtcY1sS2tki2g6Hj/57epCK1ooHQ0Zso30ZMgW0pMh20dPhsx7PRky6/VkyJzXkyEzXk+GzHc9GXoh09RhGsf0MqapwzSS6UVMU4dpLNNLmKYO02imFzBNHabxTC9fmjpc8zLTeKbXLk2d4uP51vVj/WWrpz4qrkM2j6YO2TyaOmTzaOqQ6a6pQ6a7pg6Z7po6ZLpr6pDprqlDr1+6Qlwjml7BdIW4xjS9hukKcY1qehXTFeIa1/Q6pivENbLplUxXiG2u5hrZ9GKmK1R8ZD98mZH7Y8PUMtd68h96818jZrCw1m/RXr/F9votdtZvsbt+i731W+yv3+Jg/RZPVvZ1eVSQ32YFCW5WkOFmBSluVpDjZgVJblaQ5WYFaW5WkOdWBXluVbGOV5DnVgV5bpXL89zfdCxWVs1/9JHBgu4NNgu6M9gs6L5gs6CnXDYLesZls6AnXDYLer5ls6CnWzaLjLKKz6OC/M4oq/g8KsjwjLKKz6OCHM8oq/g8KsjyjLKKz6OCPM8oq/g8qljHK8jzjLKKz6Ncnuf+dFaxsmr+21oMFnRvsFnQncFmQfcFmwU95bJZ0DMumwU94bJZ0PMtmwX9bBSbRcYDgXwe9BNVfB70w1Z8HvRzWHwe9CNafB70c4l8HvQji3we9NOMfB70g458HhXkeUZZxedRxTpewUKeUVbxeZRbynN/oaRYWTX/CRMGC7o32CzozmCzoPuCzYIuq9gs6LKKzYIuq9gs6LKKzYKebtksMsoqPg+6rOLzoMsqPg+6rOLzoMsqPg+6rOLzoMsqPg+6rOLzoMsqPo8K8jyjrOLzqGIdr2Ahzyir+DzKLeW5G8EXK6vmO8UzWNC9wWZBdwabBd0XbBZ0WcVmQZdVbBZ0WcVmQZdVbBb0dMtmkVFW8XnQZRWfB11W8XnQZRWfB11W8XnQZRWfB11W8XnQZRWfB11W8XlUkOcZZRWfRxXreAULeUZZxedRbinP3W+3WFk135CXwYLuDTYLujPYLOi+YLOgyyo2C7qsYrOgyyo2C7qsYrOgp1s2i4yyis+DLqv4POiyis+DLqv4POiyis+DLqv4POiyis+DLqv4POiyis+jgjzPKKv4PKpYxytYyDPKKj6Pckt57raGxcqq+b6HDBZ0b7BZ0J3BZkH3BZsFXVaxWdBlFZsFXVaxWdBlFZtF1r5TTBaZm61xeWTtVsXlkbWRFZdH1h5XXB5Z219xeWTt+cblkbUdHJdH1k5xXB5Zm8hxeVSQ5xllFZ9HFet4BQt5RlnF55G/lH8vssPrYkdncSR8ebvcQTbdOLYW3Qzr6Q6wuVvFLreFjmT8Opj6TlTbadWFae7URVv9zdoptt3sXYLxsNu143TsWA6DcHZ850bzbZUf7r/A3tOJwFnoyPB8qnY5Lnyh4pg95fgo7WgayjmG2qh50e5r3vcbYYQRRhhhhBFGGGGEEUYYYYQRRhhhhBFGGGGEEUYYYYQRRhhhhBFGGGGEEUYYYYQRRhhhhBFGGGGEEUYYYYQRRhhhhBFGGOF/VXjWDG5kGLqO/GirF2vNZmvF91XVq7HR01djL2Toymjxeq1RX75APPGCuOm5vsx9RTZ67j3d/Ddro2b60/OTwLNjN/ATKCOK5aTRk4MglEaxN58/yKH0nac3NP+sttuqi7Z6c7mlXmRWfxieHMQKLEd6KdvsDmV84seqfRKLwdTvp6S1TfFXjsSSUD5cfZn7Lrc63IGoxSM3akZprxQzUseji5pJ+53Y/VHtv8C6akt89ep4wr7Q7U6CyFWCb5KPi9zN8lAyz1CFwa0e0hLL9R2p8qFh1jWvXh5XZS8cuNJT4622aNN5ngzDYDqRjvj5Z/Gfxed3ze7Ijhbvv6sE23wcnT0bTRqkaQ+Hp8qj6Ul/GI/EK2GJ34Vx7HmGOHx6RuS5fVlrmJuXre+bufn2w50EoahdJbfS+lVcJTaLobrwVZ/9ksw4+h2kDjWMF3qXV9+b13Imjo6O5o1XTjFVXXT7le6tLo9eKO3rMhffa16je75qr8XdHalhrQbDYqSkGzk0u3YUuUNfOh21RUR0mbbk93JNuezoyTQa1cr2RdKlh/P+LJ9JnndY5C6b6syyLlEcBteymM/83LJOwcTuu/GsmNXi5NJ3lVosrcqqLCeSp9NKmfTQnnzUsUznpxOPaAhTV00n3Yqz3tfTVbXQ+fd5NYU6trbE569fxJ9nX8/Fxdn5l/ef3ooPZ2/fd8S7k/OTYgKnyawt72xVook4EFEQxsKfjpNx0BfpliaRsKN+Ury4/rCA4rLtlc6jldmui17xySWU8TT0xcQOI3nqBXZcs9WUv5l05aPPeulnhRozv0R7ZLu4hTzh+/Xu9PJQf6bpniZ7bcORA3vqxWISBskcJjfqYuOn/f1O5+RkY80bzwAHOMABDnCAAxzgAAc4wAHOvxNHRNNx8p/AwpHqQ+HYM0UUSgc0oAENaEADGtCABjSgAQ1oQJNNc5s+mvU3mp43lcABDnCAAxzgAAc4wAEOcIADnDI4D78baKrfDbyYUr8b2DbTb9iOj7e3Dw5AClKQghSkIAUpSEEKUpCCFKQgBenLILVSUjumSFspabttWfu7IAUpSEEKUpCCFKQgBSlIQQpSkIL0ZZC2Felp6BKk1kFKapp7e+02SEEKUpCCFKQgBSlIQQpSkIIUpCB9GaTbivTLaEqR7qekB8mx8xqkIAUpSEEKUpCCFKQgBSlIQQpSkL4M0h1F+od0KNK9lPTNm05nbw+kIAUpSEEKUpCCFKQgBSlIQQpSkL4M0t30/0xMJUW6m5J2Oru7IAUpSEEKUpCCFKQgBSlIQQpSkIL0pZDuKdKPAbWzoLWTku7vW9bODkhBClKQghSkIAUpSEEKUpCCFKQgrYx0ieKE9m0tV+yuGbuxJy9G9kQ2Y3kX1zbeBdMwyseY/XjlG3cs/cgNfE9GqUKOxNaWOHYcYYtUSdy68UhEwVgKp51zZXQzbNqTifSdmqG8jc2cC5ZH047jsGbcGXWx29K8aJZcZBW/KIpnnpzjNWy/PwrC5HrDkwMN2oXGIPDjxq10h6NYafQCzymuMe+bi0njbDBw+zLqfvvUNbunH867priYRY22OPXChiUu+qPGsXj32euP40YUTJPO+PZJfDrpvFanxXIs2uLzxTdx1u+rczc2s7r31VbUD91J/Bt5zqstx715PkxeQ4slWsJ1joy+GvudpLls15dh19zbM0TaiEeG40YTz54dur6XxBo9L+hf/2rQgInq/B5EPJsk16t23Lqyb+z5p5lXquPGDtU4FUfCcccTTzZ9eXtxM6wZPz0DWRfbrVb6R27iKV3Hju1E+PIvw7N70jMODUcO7KkXi0kYDFxPGvV5pHtnHJrNVt24sb2pXPy9r+an5Jpkyul0Tk6M+3ohHYtJp82ks82ks8Oks8uks8eks8+kc8CkY7a4hLhGtMk1pE2uMW1yDWqTa1SbXMPa5BrXJtfANrlGtsU1si22uZprZFtcI9vSGtkimo7HT36wutCKFkpHQ4ZsIz0ZsoX0ZMj20ZMh815Phsx6PRky5/VkyIzXkyHzXU+GXsg0dZjGMb2MaeowjWR6EdPUYRrL9BKmqcM0mukFTFOHaTzTy5emDte8zDSe6bVLU6f4eL51/Vh/2eqpj4rrkM2jqUM2j6YO2TyaOmS6a+qQ6a6pQ6a7pg6Z7po6ZLpr6tDrl64Q14imVzBdIa4xTa9hukJco5pexXSFuMY1vY7pCnGNbHol0xVim6u5Rja9mOkKFR/ZD99g5P7CMLXMtZ78h978J4gZLKz1W7TXb7G9foud9Vvsrt9ib/0W++u3OFi/xZOVfV0eFeS3WUGCmxVkuFlBipsV5LhZQZKbFWS5WUGamxXkuVVBnltVrOMV5LlVQZ5b5fI894cci5VV8196ZLCge4PNgu4MNgu6L9gs6CmXzYKecdks6AmXzYKeb9ks6OmWzSKjrOLzqCC/M8oqPo8KMjyjrOLzqCDHM8oqPo8KsjyjrOLzqCDPM8oqPo8q1vEK8jyjrOLzKJfnub+XVaysmv+gFoMF3RtsFnRnsFnQfcFmQU+5bBb0jMtmQU+4bBb0fMtmQT8bxWaR8UAgnwf9RBWfB/2wFZ8H/RwWnwf9iBafB/1cIp8H/cginwf9NCOfB/2gI59HBXmeUVbxeVSxjlewkGeUVXwe5Zby3J8lKVZWzX+3hMGC7g02C7oz2CzovmCzoMsqNgu6rGKzoMsqNgu6rGKzoKdbNouMsorPgy6r+DzosorPgy6r+DzosorPgy6r+DzosorPgy6r+DzosorPo4I8zyir+DyqWMcrWMgzyio+j3JLee7u78XKqvn28AwWdG+wWdCdwWZB9wWbBV1WsVnQZRWbBV1WsVnQZRWbBT3dsllklFV8HnRZxedBl1V8HnRZxedBl1V8HnRZxedBl1V8HnRZxedBl1V8HhXkeUZZxedRxTpewUKeUVbxeZRbynM32S1WVs134WWwoHuDzYLuDDYLui/YLOiyis2CLqvYLOiyis2CLqvYLOjpls0io6zi86DLKj4Puqzi86DLKj4Puqzi86DLKj4Puqzi86DLKj4Puqzi86ggzzPKKj6PKtbxChbyjLKKz6PcUp67l2Gxsmq+2SGDBd0bbBZ0Z7BZ0H3BZkGXVWwWdFnFZkGXVWwWdFnFZpG17xSTReZma1weWbtVcXlkbWTF5ZG1xxWXR9b2V1weWXu+cXlkbQfH5ZG1UxyXR9YmclweFeR5RlnF51HFOl7BQp5RVvF55C/l34vs8LrYxlkcCV/eLneQTTeOrUU3w3q6A2zuVrHLvaAjGb8Opr4T1XZadWGaO3XRVn+zdoptN3uXYDxsce04HTuWwyCcHd+50Xwv5Yf7L7DhdCJwFjoyPJ+qrY0LX6g4Zk85Pko7moZyjqF2Z160+5o3+0YYYYQRRhhhhBFGGGGEEUYYYYQRRhhhhBFGGGGEEUYYYYQRRhhhhBFGGGGEEUYYYYQRRhhhhBFGGGGEEUYYYYQRRhhhhBFG+F8VnjWDGxmGriM/2urFWrPZWvF9VfVqbPT01dgLGboyWrxea9SXLxBPvCBueq4vc1+RjZ57Tzf/zdqomf70/CTw7NgN/ATKiGI5afTkIAilUezN5w9yKH3n6Q3NP6vttuqird5cbqkXmdUfhicHsQLLkV7KNrtDGZ/4sWqfxGIw9fspaW1T/JUjsSSUD1df5r7LrQ53IGrxyI2aUdorxYzU8eiiZtJ+J3Z/VPsvsK7aEl+9Op6wL3S7kyByleCb5OMid7M8lMwzVGFwq4e0xHJ9R6p8aJh1zauXx1XZCweu9NR4qy3adJ4nwzCYTqQjfv5Z/Gfx+V2zO7KjxfvvKsE2H0dnz0aTBmnaw+Gp8mh60h/GI/FKWOJ3YRx7niEOn54ReW5f1hrm5mXr+2Zuvv1wJ0EoalfJrbR+FVeJzWKoLnzVZ78kM45+B6lDDeOF3uXV9+a1nImjo6N545VTTFUX3X6le6vLoxdK+7rMxfea1+ier9prcXdHalirwbAYKelGDs2uHUXu0JdOR20REV2mLfm9XFMuO3oyjUa1sn2RdOnhvD/LZ5LnHRa5y6Y6s6xLFIfBtSzmMz+3rFMwsftuPCtmtTi59F2lFkursirLieTptFImPbQnH3Us0/npxCMawtRV00m34qz39XRVLXT+fV5NoY6tLfH56xfx59nXc3Fxdv7l/ae34sPZ2/cd8e7k/KSYwGkya8s7W5VoIg5EFISx8KfjZBz0RbqlSSTsqJ8UL64/LKC4bHul82hltuuiV3xyCWU8DX0xscNInnqBHddsNeVvJl356LNe+lmhxswv0R7ZLm4hT/h+vTu9PNSfabqnyV7bcOTAnnqxmIRBMofJjbrY+Gl/v9M5OdlY88YzwAEOcIADHOAABzjAAQ5wgPPvxBHRdJz8J7BwpPpQOPZMEYXSAQ1oQAMa0IAGNKABDWhAAxrQZNPcpo9m/Y2m500lcIADHOAABzjAAQ5wgAMc4ACnDM7D7waa6ncDL6bU7wa2zfQbtuPj7e2DA5CCFKQgBSlIQQpSkIIUpCAFKUhB+jJIrZTUjinSVkrablvW/i5IQQpSkIIUpCAFKUhBClKQghSkIH0ZpG1Fehq6BKl1kJKa5t5euw1SkIIUpCAFKUhBClKQghSkIAUpSF8G6bYi/TKaUqT7KelBcuy8BilIQQpSkIIUpCAFKUhBClKQghSkL4N0R5H+IR2KdC8lffOm09nbAylIQQpSkIIUpCAFKUhBClKQghSkL4N0N/0/E1NJke6mpJ3O7i5IQQpSkIIUpCAFKUhBClKQghSkIH0ppHuK9GNA7Sxo7aSk+/uWtbMDUpCCFKQgBSlIQQpSkIIUpCAFKUgrI12iOKF9W8sVu2vGbuzJi5E9kc1Y3sW1jXfBNIzyMWY/XvnGHUs/cgPfk1GqkCOxtSWOHUfYIlUSt248ElEwlsJp51wZ3Qyb9mQifadmKG9jM+eC5dG04zisGXdGXey2NC+aJRdZxS+K4pkn53gN2++PgjC53vDkQIN2oTEI/LhxK93hKFYavcBzimvM++Zi0jgbDNy+jLrfPnXN7umH864lLmZRoy1OvbBhiov+qHEs3n32+uO4EQXTpDO+fRKfTjqv1WmxHIu2+HzxTZz1++rcjc2s7n21FfVDdxL/Rp7zastxb54Pk9fQYomWcJ0jo6/GfidpLtv1Zdg19/YNkTbikeG40cSzZ4eu7yWxRs8L+te/GjRgojq/BxHPJsn1qh23ruwbe/5p5pXquLFDNU7FkXDc8cSTTV/eXtwMa8ZPz0DWxXarlf6Rm3hK17FjOxG+/Mvw7J70jEPDkQN76sViEgYD15NGfR7p3hmHZrNVN25sbyqNw92D5sGjY/+gbvTVbJUoJBNQp3NyYtzXC6laa1Ftr0V1ey2qO2tR3V2L6t5aVPfXonqwFlWztR7Z9WSXuZ70MteTX+Z6EsxcT4aZ60kxcz05Zq4nycz1ZJm1niyz1rSGrSfLrPVkmbVCloloOh4/+QHwEhVCKB0N0YJtqydasGX1RAu2q55owblLT7TgzKUnWnDe0hMtOGvpiRacs/REixYGmqpryamiZYGm6lqyqmhRoKm6lrwqWhJoqq4ls4oWBJqqa8mtouWApup61qu15FbRWkBTtWxu3bp+vGoZ0FMnFFct2KyaqgWbVVO1YLNqqhacsjRVC05ZmqoFpyxN1YJTlqZqwSlLU7VoPaAru57sKloR6MquJ7+K1gS6suvJsKJVga7senKsaF2gK7ueLCtaGejKrmkNW0+WFS0OdGW1sux7kS8cFt8qiiPhy9vlFxrp9xi16GZYT7+QyP3mYvnVZCTj18HUd6LaTqsuTHOnLtrqb9ZOsW8/7hKMh29cHadjx3IYhLPjOzeaf7X30BQFvv9MBM5CR4bnU/VNW+ELFcfsKcdHaUfTUM4x1JeFiy5Y9Rvd9Iukp1YXMnRltMBNnBYdMvGCuKm+3cq1jJ6773zSqJmOu0ng2bEb+AmUEcVy0ujJQRBKo9hI+iCH0nee3tD8s9puMgraaiSoL8NM9cfiC9Pc75KXss3uUMYnfqzaJ7EYTP1+SlrbFH8V+MZUEcqHqy9zc0Md7kDU4pEbJeNaXVfMSB2PLmom7Xdi90e1/wLrqi3xF98NLnS7kyByleCb5OMid7M8lMwzVGFwq4e0xHJ9R6rEbZh1zauXx1XZCweu9NR4qy3adJ4nwzCYTqQjfv5Z/Gfx+V2zO7KjxXyiEmzzcXT2bDRpkKY9HJ4qj6Yn/WE8Eq+EJX4XxrHnGeLw6RmR5/ZlrWFuXra+b+bm2w93EoSidpXcSutXcZXYLIbqwld99suRMPU7SB1qGC/0Lq++N69lMr0dHc0br5xiqrro9ivdW10evVDa12Uuvte8Rvd81V6LuztSw1oNhsVISRfGZnf+NJB00ueBosu0Jb+Xa8plR0+m0ahWti+SLj2c92f5TPK8wyJ32VRnlnWJ4jC4lsV85ueWdQomdt+NZ8WsFieXvqvUYmlVVmU5kTydVsqkh/bko45lOj+deERDmLpqOulWnPW+nq6qhc6/z6sp1LG1JT5//SL+PPt6Li7Ozr+8//RWfDh7+74j3p2cnxQTOE1mbXlnqxJNxIGIgqSQ9qfjZBz0RVoiRsKO+knx4vrDAorLtlc6j1Zmuy56xSeXUMbT0BcTO4zkqRfYcc1WU/5m0pWPPuulnxVqzPwS7ZHt4hbyhO//gac2//YF7OLRTPWF6j/yEClwgAMc4AAHOMABDnCAAxzgvHicHx9wUUShdEADGtCABjSgAQ1oQAMa0IAGNNk0PzwSqGjUI37AAQ5wgAMc4AAHOMABDnCAA5x/cK/EL3I8kaEdT0Mpaqeb2C3xf2q3xD9sNeLeyfQfx+OeK/1YqC5TOx9KZ5q0f0PstU5fyCaIBy9hE8SDyjZBTF89LbsJE5NOm0lnm0lnh0lnl0lnj0lnn0nngEnnye4CKwlxjWiTa0ibXGPa5BrUJteoNrmGtck1rk2ugW1yjWyLa2RbbHM118i2uEa2pTWyi2/a90Sq/DZ9K8iQLVR+K74VZMi8L7/d3goyZM6X31JvBRky31fYNm8VHaZxTC9jK2yGt4oO01Cm17AVtrhbRYdpNNML2Aob160yDzKNZ3r1WmE7ulV0mMYzvXSV32TuicwK28qtokM2zwpbx62iQ6b7CtvDraJDpvsKW8CtokOm+yrbvK0kxDWi6RVslc3bVhLiGtT0IrbKlmwrCXGNa3odW2WjtZVmRq6RTS9lq2yftpIQ18imVzNsivYiNkVDGGGEEUYYYYQRRhhhhBFGGGGEEUb4fyk8awY3MgxdR3601f+oMpstbIr/6E6wKf7DgU3xtQ5sio9N8TUObIr/9wOb4v/9wKb4mgc2xcem+M8e2BQfOMABDnCAAxzgAAc4wAEOcIDzEraUBA1oQAMa0IAGNKABDWhAA5qXQ/P/zVaWwAEOcIADHOAABzjAAQ5wgFPe7x/YFP+NO5Z+5Aa+J6MIW+L/b22JH4TX4mQwcPuu9Puzh43wq90Cf3H23yKP/3359/k/H9QXf3n4Ry9wZuqfo3js/fb//g9QyEvF"
               },
               {
                  "name" : "annual_peak_electric_demand",
                  "units" : "kW",
                  "value" : 2571.19533
               },
               {
                  "name" : "first_year_capital_cost",
                  "units" : "$",
                  "value" : 0
               },
               {
                  "name" : "annual_utility_cost",
                  "units" : "$",
                  "value" : 0
               },
               {
                  "name" : "total_lifecycle_cost",
                  "units" : "$",
                  "value" : 0
               }
            ],
            "step_warnings" : [ "A table in Annual Overview section returned false and was skipped." ]
         }
      }
   ],
   "updated_at" : "20170710T194115Z",
   "weather_file" : "USA_CO_Denver.Intl.AP.725650_TMY3.epw"
}
