{
   "completed_at" : "20170710T192553Z",
   "completed_status" : "Success",
   "created_at" : "2017-07-10 19:23:48 +0000",
   "current_step" : 5,
   "description" : "",
   "eplusout_err" : "Program Version,EnergyPlus, Version 8.7.0-78a111df4a, YMD=2017.07.10 19:24,IDD_Version 8.7.0\n   ************* IDF Context for following error/warning message:\n   ************* Note -- lines truncated at 300 characters, if necessary...\n   *************      5 Building,\n   ************* indicated Name=NECB 2011-Warehouse-NECB HDD Method-CAN_AB_Fort.McMurray.719320_CWEC.epw created: 2017-07-10 19:23:54 +0000\n   ************* Only last 1 lines before error line shown.....\n   *************      6   NECB 2011-Warehouse-NECB HDD Method-CAN_AB_Fort.McMurray.719320_CWEC.epw created: 2017-07-10 19:23:54 +0000, !- Name\n   ** Warning ** IP: IDF line~6 Alpha Argument length exceeds maximum, will be truncated=  NECB 2011-Warehouse-NECB HDD Method-CAN_AB_Fort.McMurray.719320_CWEC.epw created: 2017-07-10 19:23:54 +000\n   **   ~~~   ** Will be processed as Alpha=NECB 2011-WAREHOUSE-NECB HDD METHOD-CAN_AB_FORT.MCMURRAY.719320_CWEC.EPW CREATED: 2017-07-10 19:23:54 +0000\n   ************* Beginning Zone Sizing Calculations\n   ** Warning ** ProcessScheduleInput: Schedule:Day:Interval=\"ECONOMIZER MAX OA FRACTION 100 PCT DEFAULT\", Blank Schedule Type Limits Name input -- will not be validated.\n   ** Warning ** ProcessScheduleInput: Schedule:Day:Interval=\"SCHEDULE DAY 1\", Blank Schedule Type Limits Name input -- will not be validated.\n   ** Warning ** ProcessScheduleInput: Schedule:Day:Interval=\"SCHEDULE DAY 10\", Blank Schedule Type Limits Name input -- will not be validated.\n   ** Warning ** ProcessScheduleInput: Schedule:Day:Interval=\"SCHEDULE DAY 11\", Blank Schedule Type Limits Name input -- will not be validated.\n   ** Warning ** ProcessScheduleInput: Schedule:Day:Interval=\"SCHEDULE DAY 12\", Blank Schedule Type Limits Name input -- will not be validated.\n   ** Warning ** ProcessScheduleInput: Schedule:Day:Interval=\"SCHEDULE DAY 13\", Blank Schedule Type Limits Name input -- will not be validated.\n   ** Warning ** ProcessScheduleInput: Schedule:Day:Interval=\"SCHEDULE DAY 14\", Blank Schedule Type Limits Name input -- will not be validated.\n   ** Warning ** ProcessScheduleInput: Schedule:Day:Interval=\"SCHEDULE DAY 15\", Blank Schedule Type Limits Name input -- will not be validated.\n   ** Warning ** ProcessScheduleInput: Schedule:Day:Interval=\"SCHEDULE DAY 16\", Blank Schedule Type Limits Name input -- will not be validated.\n   ** Warning ** ProcessScheduleInput: Schedule:Day:Interval=\"SCHEDULE DAY 17\", Blank Schedule Type Limits Name input -- will not be validated.\n   ** Warning ** ProcessScheduleInput: Schedule:Day:Interval=\"SCHEDULE DAY 18\", Blank Schedule Type Limits Name input -- will not be validated.\n   ** Warning ** ProcessScheduleInput: Schedule:Day:Interval=\"SCHEDULE DAY 19\", Blank Schedule Type Limits Name input -- will not be validated.\n   ** Warning ** ProcessScheduleInput: Schedule:Day:Interval=\"SCHEDULE DAY 2\", Blank Schedule Type Limits Name input -- will not be validated.\n   ** Warning ** ProcessScheduleInput: Schedule:Day:Interval=\"SCHEDULE DAY 5\", Blank Schedule Type Limits Name input -- will not be validated.\n   ** Warning ** ProcessScheduleInput: Schedule:Day:Interval=\"SCHEDULE DAY 6\", Blank Schedule Type Limits Name input -- will not be validated.\n   ** Warning ** ProcessScheduleInput: Schedule:Day:Interval=\"SCHEDULE DAY 7\", Blank Schedule Type Limits Name input -- will not be validated.\n   ** Warning ** ProcessScheduleInput: Schedule:Day:Interval=\"SCHEDULE DAY 8\", Blank Schedule Type Limits Name input -- will not be validated.\n   ** Warning ** ProcessScheduleInput: Schedule:Day:Interval=\"SCHEDULE DAY 9\", Blank Schedule Type Limits Name input -- will not be validated.\n   ** Warning ** ProcessScheduleInput: Schedule:Year=\"ECONOMIZER MAX OA FRACTION 100 PCT\", Blank Schedule Type Limits Name input -- will not be validated.\n   ** Warning ** ProcessScheduleInput: Schedule:Year=\"SCHEDULE RULESET 10\", Blank Schedule Type Limits Name input -- will not be validated.\n   ** Warning ** ProcessScheduleInput: Schedule:Year=\"SCHEDULE RULESET 11\", Blank Schedule Type Limits Name input -- will not be validated.\n   ** Warning ** ProcessScheduleInput: Schedule:Year=\"SCHEDULE RULESET 3\", Blank Schedule Type Limits Name input -- will not be validated.\n   ** Warning ** ProcessScheduleInput: Schedule:Year=\"SCHEDULE RULESET 4\", Blank Schedule Type Limits Name input -- will not be validated.\n   ** Warning ** ProcessScheduleInput: Schedule:Year=\"SCHEDULE RULESET 5\", Blank Schedule Type Limits Name input -- will not be validated.\n   ** Warning ** ProcessScheduleInput: Schedule:Year=\"SCHEDULE RULESET 6\", Blank Schedule Type Limits Name input -- will not be validated.\n   ** Warning ** ProcessScheduleInput: Schedule:Year=\"SCHEDULE RULESET 7\", Blank Schedule Type Limits Name input -- will not be validated.\n   ** Warning ** ProcessScheduleInput: Schedule:Year=\"SCHEDULE RULESET 8\", Blank Schedule Type Limits Name input -- will not be validated.\n   ** Warning ** ProcessScheduleInput: Schedule:Year=\"SCHEDULE RULESET 9\", Blank Schedule Type Limits Name input -- will not be validated.\n   ** Warning ** ProcessScheduleInput: Schedule:Constant=\"ALWAYS OFF DISCRETE\", Blank Schedule Type Limits Name input -- will not be validated.\n   ** Warning ** ProcessScheduleInput: Schedule:Constant=\"ALWAYS ON CONTINUOUS\", Blank Schedule Type Limits Name input -- will not be validated.\n   ** Warning ** CheckUsedConstructions: There are 22 nominally unused constructions in input.\n   **   ~~~   ** For explicit details on each unused construction, use Output:Diagnostics,DisplayExtraWarnings;\n   ************* Beginning System Sizing Calculations\n   ************* Beginning Plant Sizing Calculations\n   ** Warning ** GetDXCoils: Coil:Cooling:DX:SingleSpeed=\"COIL COOLING DX SINGLE SPEED 1 32KBTU/HR 14.0SEER\", invalid\n   **   ~~~   ** ...Part Load Fraction Correlation Curve Name = DXCOOL-NECB2011-REF-COOLPLFFPLR has out of range value.\n   **   ~~~   ** ...Curve maximum must be <= 1.0, curve max at PLR = 0.99 is 1.015\n   **   ~~~   ** ...Setting curve maximum to 1.0 and simulation continues.\n   ** Warning ** GetDXCoils: Coil:Cooling:DX:SingleSpeed=\"COIL COOLING DX SINGLE SPEED 3 142KBTU/HR 9.7EER\", invalid\n   **   ~~~   ** ...Part Load Fraction Correlation Curve Name = DXCOOL-NECB2011-REF-COOLPLFFPLR 2 has out of range value.\n   **   ~~~   ** ...Curve maximum must be <= 1.0, curve max at PLR = 0.99 is 1.015\n   **   ~~~   ** ...Setting curve maximum to 1.0 and simulation continues.\n   ** Warning ** GetDXCoils: Coil:Cooling:DX:SingleSpeed=\"COIL COOLING DX SINGLE SPEED 2 344KBTU/HR 8.21EER\", invalid\n   **   ~~~   ** ...Part Load Fraction Correlation Curve Name = DXCOOL-NECB2011-REF-COOLPLFFPLR 1 has out of range value.\n   **   ~~~   ** ...Curve maximum must be <= 1.0, curve max at PLR = 0.99 is 1.015\n   **   ~~~   ** ...Setting curve maximum to 1.0 and simulation continues.\n   ** Warning ** The Standard Ratings is calculated for Coil:Cooling:DX:SingleSpeed = COIL COOLING DX SINGLE SPEED 1 32KBTU/HR 14.0SEER but not at the AHRI test condition due to curve out of bound.\n   **   ~~~   **  Review the Standard Ratings calculations in the Engineering Reference for this coil type. Also, use Output:Diagnostics, DisplayExtraWarnings for further guidance.\n   ** Warning ** The Standard Ratings is calculated for Coil:Cooling:DX:SingleSpeed = COIL COOLING DX SINGLE SPEED 3 142KBTU/HR 9.7EER but not at the AHRI test condition due to curve out of bound.\n   **   ~~~   **  Review the Standard Ratings calculations in the Engineering Reference for this coil type. Also, use Output:Diagnostics, DisplayExtraWarnings for further guidance.\n   ** Warning ** The Standard Ratings is calculated for Coil:Cooling:DX:SingleSpeed = COIL COOLING DX SINGLE SPEED 2 344KBTU/HR 8.21EER but not at the AHRI test condition due to curve out of bound.\n   **   ~~~   **  Review the Standard Ratings calculations in the Engineering Reference for this coil type. Also, use Output:Diagnostics, DisplayExtraWarnings for further guidance.\n   ** Warning ** Check input. Pump nominal power or motor efficiency is set to 0, for pump=SERVICE WATER LOOP PUMP\n   ** Warning ** Output:Meter: invalid Name=\"DISTRICTCOOLING:FACILITY\" - not found.\n   ** Warning ** Output:Meter: invalid Name=\"DISTRICTHEATING:FACILITY\" - not found.\n   ** Warning ** Output:Meter:MeterFileOnly requested for \"Electricity:Facility\" (TimeStep), already on \"Output:Meter\". Will report to both eplusout.eso and eplusout.mtr\n   ************* Testing Individual Branch Integrity\n   ************* All Branches passed integrity testing\n   ************* Testing Individual Supply Air Path Integrity\n   ************* All Supply Air Paths passed integrity testing\n   ************* Testing Individual Return Air Path Integrity\n   ************* All Return Air Paths passed integrity testing\n   ************* No node connection errors were found.\n   ************* Beginning Simulation\n   ** Warning ** CalcDoe2DXCoil: Coil:Cooling:DX:SingleSpeed \"COIL COOLING DX SINGLE SPEED 1 32KBTU/HR 14.0SEER\" - Air-cooled condenser inlet dry-bulb temperature below 0 C. Outdoor dry-bulb temperature = -15.28\n   **   ~~~   **  ... Occurrence info = RUN PERIOD 1, 01/02 06:03 - 06:05\n   **   ~~~   ** ... Operation at low ambient temperatures may require special performance curves.\n   ************* Simulation Error Summary *************\n   ************* There are 9 unused schedules in input.\n   ************* There are 9 unused week schedules in input.\n   ************* There are 18 unused day schedules in input.\n   ************* Use Output:Diagnostics,DisplayUnusedSchedules; to see them.\n   *************\n   ************* ===== Recurring Error Summary =====\n   ************* The following recurring error messages occurred.\n   *************\n   *************  ** Warning ** CalcDoe2DXCoil: Coil:Cooling:DX:SingleSpeed=\"COIL COOLING DX SINGLE SPEED 1 32KBTU/HR 14.0SEER\" - Low condenser dry-bulb temperature error continues...\n   *************  **   ~~~   **   This error occurred 492 total times;\n   *************  **   ~~~   **   during Warmup 0 times;\n   *************  **   ~~~   **   during Sizing 0 times.\n   *************  **   ~~~   **   Max=-2.500000E-002 [C]  Min=-36.825 [C]\n   *************\n   *************\n   ************* ===== Final Error Summary =====\n   ************* The following error categories occurred.  Consider correcting or noting.\n   ************* Nominally Unused Constructions\n   ************* ..The nominally unused constructions warning is provided to alert you to potential conditions that can cause\n   ************* ..extra time during simulation. Each construction is calculated by the algorithm indicated in the HeatBalanceAlgorithm\n   ************* ..object. You may remove the constructions indicated (when you use the DisplayExtraWarnings option).\n   *************\n   ************* EnergyPlus Warmup Error Summary. During Warmup: 0 Warning; 0 Severe Errors.\n   ************* EnergyPlus Sizing Error Summary. During Sizing: 31 Warning; 0 Severe Errors.\n   ************* EnergyPlus Completed Successfully-- 534 Warning; 0 Severe Errors; Elapsed Time=00hr 00min 39.01sec\n",
   "file_format_version" : "0.0.1",
   "file_paths" : [ "../weather", "../seeds", "../seed" ],
   "hash" : "619709F2",
   "measure_paths" : [ "../measures" ],
   "name" : "LHS Autogenerated 943",
   "osa_id" : "4fef0e0f-5396-4c55-a6e1-2cd6803db3ab",
   "osd_id" : "fd636240-b36a-4cf1-ae22-c57cb1cd4296",
   "run_directory" : "./run",
   "seed_file" : "seed.osm",
   "started_at" : "20170710T192351Z",
   "steps" : [
      {
         "arguments" : {
            "__SKIP__" : false,
            "building_type" : "Warehouse",
            "climate_zone" : "NECB HDD Method",
            "epw_file" : "CAN_AB_Fort.McMurray.719320_CWEC.epw",
            "template" : "NECB 2011"
         },
         "measure_dir_name" : "create_prototype_building",
         "name" : "create_prototype_building",
         "result" : {
            "completed_at" : "20170710T192444Z",
            "measure_class_name" : "CreatePrototypeBuilding",
            "measure_display_name" : "Create Prototype Building",
            "measure_name" : "create_prototype_building",
            "measure_taxonomy" : "Whole Building.Space Types",
            "measure_type" : "ModelMeasure",
            "measure_uid" : "ae90fsd7-a651-467a-bc8d-29d310b0f937",
            "measure_version_id" : "c6ec5c18-5595-459f-a082-09a19c8c869c",
            "measure_version_modified" : "20170519T182315Z",
            "measure_xml_checksum" : "057E8D9D",
            "started_at" : "20170710T192353Z",
            "stderr" : "",
            "stdout" : "[OpenStudio.Measure] <0> OSArgumentVector is deprecated, use OpenStudio::Measure::OSArgumentVector instead.\n[openstudio.EpwFile] <0> Successive data points (1973-Jan-31 to 1971-Feb-01, ending on line 753) are greater than 1 day apart in EPW file '/usr/local/bundle/bundler/gems/openstudio-standards-f448df66933d/openstudio-standards/data/weather/CAN_AB_Fort.McMurray.719320_CWEC.epw'. Data will be treated as typical (TMY)\n[openstudio.setFileExtension] <0> Path p, '/usr/local/bundle/bundler/gems/openstudio-standards-f448df66933d/openstudio-standards/data/weather/CAN_AB_Fort.McMurray.719320_CWEC.ddy', has an unexpected file extension. Was expecting 'idf'.\n[openstudio.model.YearDescription] <1> 'UseWeatherFile' is not yet a supported option for YearDescription\n[openstudio.model.YearDescription] <1> 'UseWeatherFile' is not yet a supported option for YearDescription\n[openstudio.setFileExtension] <0> Path p, '/usr/local/bundle/bundler/gems/openstudio-standards-f448df66933d/openstudio-standards/data/weather/CAN_AB_Fort.McMurray.719320_CWEC.ddy', has an unexpected file extension. Was expecting 'idf'.\n[openstudio.model.YearDescription] <1> 'UseWeatherFile' is not yet a supported option for YearDescription\n[openstudio.model.YearDescription] <1> 'UseWeatherFile' is not yet a supported option for YearDescription\n[openstudio.EpwFile] <0> Successive data points (1973-Jan-31 to 1971-Feb-01, ending on line 753) are greater than 1 day apart in EPW file '/usr/local/bundle/bundler/gems/openstudio-standards-f448df66933d/openstudio-standards/data/weather/CAN_AB_Fort.McMurray.719320_CWEC.epw'. Data will be treated as typical (TMY)\n[openstudio.weather.Model] <0> Could not find ground temperatures; will use generic temperatures, which will skew results.\n[openstudio.setFileExtension] <0> Path p, '/usr/local/bundle/bundler/gems/openstudio-standards-f448df66933d/openstudio-standards/data/weather/CAN_AB_Fort.McMurray.719320_CWEC.ddy', has an unexpected file extension. Was expecting 'idf'.\n[openstudio.model.YearDescription] <1> 'UseWeatherFile' is not yet a supported option for YearDescription\n[openstudio.model.YearDescription] <1> 'UseWeatherFile' is not yet a supported option for YearDescription\n[openstudio.EpwFile] <0> Successive data points (1973-Jan-31 to 1971-Feb-01, ending on line 753) are greater than 1 day apart in EPW file '/usr/local/bundle/bundler/gems/openstudio-standards-f448df66933d/openstudio-standards/data/weather/CAN_AB_Fort.McMurray.719320_CWEC.epw'. Data will be treated as typical (TMY)\n[openstudio.setFileExtension] <0> Path p, '/usr/local/bundle/bundler/gems/openstudio-standards-f448df66933d/openstudio-standards/data/weather/CAN_AB_Fort.McMurray.719320_CWEC.ddy', has an unexpected file extension. Was expecting 'idf'.\n[openstudio.model.YearDescription] <1> 'UseWeatherFile' is not yet a supported option for YearDescription\n[openstudio.model.YearDescription] <1> 'UseWeatherFile' is not yet a supported option for YearDescription\n[openstudio.setFileExtension] <0> Path p, '/usr/local/bundle/bundler/gems/openstudio-standards-f448df66933d/openstudio-standards/data/weather/CAN_AB_Fort.McMurray.719320_CWEC.ddy', has an unexpected file extension. Was expecting 'idf'.\n[openstudio.model.YearDescription] <1> 'UseWeatherFile' is not yet a supported option for YearDescription\n[openstudio.model.YearDescription] <1> 'UseWeatherFile' is not yet a supported option for YearDescription\n[openstudio.EpwFile] <0> Successive data points (1973-Jan-31 to 1971-Feb-01, ending on line 753) are greater than 1 day apart in EPW file '/usr/local/bundle/bundler/gems/openstudio-standards-f448df66933d/openstudio-standards/data/weather/CAN_AB_Fort.McMurray.719320_CWEC.epw'. Data will be treated as typical (TMY)\n[openstudio.setFileExtension] <0> Path p, '/usr/local/bundle/bundler/gems/openstudio-standards-f448df66933d/openstudio-standards/data/weather/CAN_AB_Fort.McMurray.719320_CWEC.ddy', has an unexpected file extension. Was expecting 'idf'.\n[openstudio.model.YearDescription] <1> 'UseWeatherFile' is not yet a supported option for YearDescription\n[openstudio.model.YearDescription] <1> 'UseWeatherFile' is not yet a supported option for YearDescription\n[openstudio.setFileExtension] <0> Path p, '/usr/local/bundle/bundler/gems/openstudio-standards-f448df66933d/openstudio-standards/data/weather/CAN_AB_Fort.McMurray.719320_CWEC.ddy', has an unexpected file extension. Was expecting 'idf'.\n[openstudio.model.YearDescription] <1> 'UseWeatherFile' is not yet a supported option for YearDescription\n[openstudio.model.YearDescription] <1> 'UseWeatherFile' is not yet a supported option for YearDescription\n[utilities.idf.WorkspaceObject] <0> Object of type 'Schedule:Constant' and named 'Always Off Discrete', points to an object named OnOff 1 from field 1, but that object cannot be located.\n[utilities.idf.WorkspaceObject] <0> Object of type 'Schedule:Constant' and named 'Always On Continuous', points to an object named Fractional 1 from field 1, but that object cannot be located.\n[utilities.idf.WorkspaceObject] <0> Object of type 'Schedule:Constant' and named 'Always Off Discrete', points to an object named OnOff 1 from field 1, but that object cannot be located.\n[utilities.idf.WorkspaceObject] <0> Object of type 'Schedule:Constant' and named 'Always On Continuous', points to an object named Fractional 1 from field 1, but that object cannot be located.\n[openstudio.standards.Fan] <0> For Fan Constant Volume 1, there is no greater nominal HP.  Use the efficiency of the largest motor category.\n[openstudio.standards.Fan] <0> For Fan Constant Volume 2, there is no greater nominal HP.  Use the efficiency of the largest motor category.\n[openstudio.standards.Fan] <0> For Fan Constant Volume 3, there is no greater nominal HP.  Use the efficiency of the largest motor category.\n[openstudio.EpwFile] <0> Successive data points (1973-Jan-31 to 1971-Feb-01, ending on line 753) are greater than 1 day apart in EPW file '/usr/local/bundle/bundler/gems/openstudio-standards-f448df66933d/openstudio-standards/data/weather/CAN_AB_Fort.McMurray.719320_CWEC.epw'. Data will be treated as typical (TMY)\n[openstudio.setFileExtension] <0> Path p, '/usr/local/bundle/bundler/gems/openstudio-standards-f448df66933d/openstudio-standards/data/weather/CAN_AB_Fort.McMurray.719320_CWEC.ddy', has an unexpected file extension. Was expecting 'idf'.\n[openstudio.model.YearDescription] <1> 'UseWeatherFile' is not yet a supported option for YearDescription\n[openstudio.model.YearDescription] <1> 'UseWeatherFile' is not yet a supported option for YearDescription\n[openstudio.setFileExtension] <0> Path p, '/usr/local/bundle/bundler/gems/openstudio-standards-f448df66933d/openstudio-standards/data/weather/CAN_AB_Fort.McMurray.719320_CWEC.ddy', has an unexpected file extension. Was expecting 'idf'.\n[openstudio.model.YearDescription] <1> 'UseWeatherFile' is not yet a supported option for YearDescription\n[openstudio.model.YearDescription] <1> 'UseWeatherFile' is not yet a supported option for YearDescription\n[openstudio.EpwFile] <0> Successive data points (1973-Jan-31 to 1971-Feb-01, ending on line 753) are greater than 1 day apart in EPW file '/usr/local/bundle/bundler/gems/openstudio-standards-f448df66933d/openstudio-standards/data/weather/CAN_AB_Fort.McMurray.719320_CWEC.epw'. Data will be treated as typical (TMY)\n[openstudio.setFileExtension] <0> Path p, '/usr/local/bundle/bundler/gems/openstudio-standards-f448df66933d/openstudio-standards/data/weather/CAN_AB_Fort.McMurray.719320_CWEC.ddy', has an unexpected file extension. Was expecting 'idf'.\n[openstudio.model.YearDescription] <1> 'UseWeatherFile' is not yet a supported option for YearDescription\n[openstudio.model.YearDescription] <1> 'UseWeatherFile' is not yet a supported option for YearDescription\n[openstudio.setFileExtension] <0> Path p, '/usr/local/bundle/bundler/gems/openstudio-standards-f448df66933d/openstudio-standards/data/weather/CAN_AB_Fort.McMurray.719320_CWEC.ddy', has an unexpected file extension. Was expecting 'idf'.\n[openstudio.model.YearDescription] <1> 'UseWeatherFile' is not yet a supported option for YearDescription\n[openstudio.model.YearDescription] <1> 'UseWeatherFile' is not yet a supported option for YearDescription\n[openstudio.EpwFile] <0> Successive data points (1973-Jan-31 to 1971-Feb-01, ending on line 753) are greater than 1 day apart in EPW file '/usr/local/bundle/bundler/gems/openstudio-standards-f448df66933d/openstudio-standards/data/weather/CAN_AB_Fort.McMurray.719320_CWEC.epw'. Data will be treated as typical (TMY)\n[openstudio.setFileExtension] <0> Path p, '/usr/local/bundle/bundler/gems/openstudio-standards-f448df66933d/openstudio-standards/data/weather/CAN_AB_Fort.McMurray.719320_CWEC.ddy', has an unexpected file extension. Was expecting 'idf'.\n[openstudio.model.YearDescription] <1> 'UseWeatherFile' is not yet a supported option for YearDescription\n[openstudio.model.YearDescription] <1> 'UseWeatherFile' is not yet a supported option for YearDescription\n[openstudio.setFileExtension] <0> Path p, '/usr/local/bundle/bundler/gems/openstudio-standards-f448df66933d/openstudio-standards/data/weather/CAN_AB_Fort.McMurray.719320_CWEC.ddy', has an unexpected file extension. Was expecting 'idf'.\n[openstudio.model.YearDescription] <1> 'UseWeatherFile' is not yet a supported option for YearDescription\n[openstudio.model.YearDescription] <1> 'UseWeatherFile' is not yet a supported option for YearDescription\n[openstudio.standards.Fan] <0> For Fan Constant Volume 1, there is no greater nominal HP.  Use the efficiency of the largest motor category.\n[openstudio.standards.Fan] <0> For Fan Constant Volume 2, there is no greater nominal HP.  Use the efficiency of the largest motor category.\n[openstudio.standards.Fan] <0> For Fan Constant Volume 3, there is no greater nominal HP.  Use the efficiency of the largest motor category.\n",
            "step_errors" : [],
            "step_files" : [],
            "step_info" : [
               "Started adding geometry",
               "Finished adding geometry",
               "Started adding weather file for climate zone: NECB HDD Method.",
               "Template =",
               "Setting Zone3 Bulk Storage to Space Function.Warehouse - med/blk",
               "Setting Zone2 Fine Storage to Space Function.Warehouse - fine",
               "Setting Zone1 Office to Space Function.Office - enclosed",
               "Started applying space types (loads)",
               "Space Function Office - enclosed had no people, one has been created.",
               "Space Function Office - enclosed set occupancy to 4.65 people/1000 ft^2.",
               "Space Function Office - enclosed had no lights, one has been created.",
               "Space Function Office - enclosed set LPD to 1.105536975 W/ft^2.",
               "Space Function Office - enclosed had no electric equipment, one has been created.",
               "Space Function Office - enclosed set electric EPD to 0.696767001 W/ft^2.",
               "Space Function Office - enclosed had no ventilation specification, one has been created.",
               "Space Function Office - enclosed set ventilation per area to 0.085 cfm/ft^2.",
               "Space Function Office - enclosed had no infiltration objects, one has been created.",
               "Space Function Office - enclosed set infiltration to 0.0 per ft^2 exterior surface area.",
               "Space Function Office - enclosed set occupancy schedule to NECB-A-Occupancy.",
               "Space Function Office - enclosed set occupant activity schedule to NECB-Activity.",
               "Space Function Office - enclosed set lighting schedule to NECB-A-Lighting.",
               "Space Function Office - enclosed set electric equipment schedule to NECB-A-Electric-Equipment.",
               "Space Function Office - enclosed set infiltration schedule to Always On.",
               "Space Function Office - enclosed set heating setpoint schedule to NECB-A-Thermostat Setpoint-Heating.",
               "Space Function Office - enclosed set cooling setpoint schedule to NECB-A-Thermostat Setpoint-Cooling.",
               "Space Function Warehouse - fine had no people, one has been created.",
               "Space Function Warehouse - fine set occupancy to 1.86 people/1000 ft^2.",
               "Space Function Warehouse - fine had no lights, one has been created.",
               "Space Function Warehouse - fine set LPD to 0.947603122 W/ft^2.",
               "Space Function Warehouse - fine had no electric equipment, one has been created.",
               "Space Function Warehouse - fine set electric EPD to 0.092902267 W/ft^2.",
               "Space Function Warehouse - fine had no ventilation specification, one has been created.",
               "Space Function Warehouse - fine set ventilation per area to 0.06 cfm/ft^2.",
               "Space Function Warehouse - fine had no infiltration objects, one has been created.",
               "Space Function Warehouse - fine set infiltration to 0.0 per ft^2 exterior surface area.",
               "Space Function Warehouse - fine set occupancy schedule to NECB-A-Occupancy.",
               "Space Function Warehouse - fine set occupant activity schedule to NECB-Activity.",
               "Space Function Warehouse - fine set lighting schedule to NECB-A-Lighting.",
               "Space Function Warehouse - fine set electric equipment schedule to NECB-A-Electric-Equipment.",
               "Space Function Warehouse - fine set infiltration schedule to Always On.",
               "Space Function Warehouse - fine set heating setpoint schedule to NECB-A-Thermostat Setpoint-Heating.",
               "Space Function Warehouse - fine set cooling setpoint schedule to NECB-A-Thermostat Setpoint-Cooling.",
               "Space Function Warehouse - med/blk had no people, one has been created.",
               "Space Function Warehouse - med/blk set occupancy to 0.93 people/1000 ft^2.",
               "Space Function Warehouse - med/blk had no lights, one has been created.",
               "Space Function Warehouse - med/blk set LPD to 0.594574508 W/ft^2.",
               "Space Function Warehouse - med/blk had no electric equipment, one has been created.",
               "Space Function Warehouse - med/blk set electric EPD to 0.092902267 W/ft^2.",
               "Space Function Warehouse - med/blk had no ventilation specification, one has been created.",
               "Space Function Warehouse - med/blk set ventilation per area to 0.06 cfm/ft^2.",
               "Space Function Warehouse - med/blk had no infiltration objects, one has been created.",
               "Space Function Warehouse - med/blk set infiltration to 0.0 per ft^2 exterior surface area.",
               "Space Function Warehouse - med/blk set occupancy schedule to NECB-A-Occupancy.",
               "Space Function Warehouse - med/blk set occupant activity schedule to NECB-Activity.",
               "Space Function Warehouse - med/blk set lighting schedule to NECB-A-Lighting.",
               "Space Function Warehouse - med/blk set electric equipment schedule to NECB-A-Electric-Equipment.",
               "Space Function Warehouse - med/blk set infiltration schedule to Always On.",
               "Space Function Warehouse - med/blk set heating setpoint schedule to NECB-A-Thermostat Setpoint-Heating.",
               "Space Function Warehouse - med/blk set cooling setpoint schedule to NECB-A-Thermostat Setpoint-Cooling.",
               "Finished applying space types (loads)",
               "Started applying constructions",
               "Adding construction set: NECB 2011-NECB HDD Method-Warehouse--is_residentialNo",
               "Adding construction Typical Insulated Exterior Mass Floor R-15.63.",
               "Adding construction Typical Insulated Exterior Mass Wall R-12.5.",
               "Adding construction Typical Insulated Metal Building Roof R-20.41.",
               "Adding construction Typical Interior Floor.",
               "Adding construction Typical Interior Wall.",
               "Adding construction Typical Interior Ceiling.",
               "Adding construction Typical Insulated Carpeted 6in Slab Floor.",
               "Adding construction U 0.55 SHGC 0.31 Dbl Ref-D Tint 6mm/6mm Air.",
               "Adding construction Typical Insulated Metal Door R-1.43.",
               "Adding construction U 0.35 SHGC 0.35 Dbl LoE (e2-.1) Tint 6mm/13mm Air.",
               "Adding construction Typical Overhead Door R-2.0.",
               "Adding construction U 0.48 SHGC 0.40 Dbl Ref-D Clr 6mm/13mm.",
               "Adding construction Typical Interior Window.",
               "Adding construction Typical Interior Door.",
               "Adding construction Typical Interior Partition.",
               "Finished applying constructions",
               "WWR NonRes = 0%; window = 0 ft2, wall = 0 ft2.",
               "WWR Res = 0%; window = 0 ft2, wall = 0 ft2.",
               "WWR Semiheated = 0%; window = 0 ft2, wall = 0 ft2.",
               "The skylight to roof ratios (SRRs) are: NonRes: 2%, Res: 0%.",
               "Started creating thermal zones",
               "Finished creating thermal zones",
               "Running simulation /mnt/openstudio/analysis_4fef0e0f-5396-4c55-a6e1-2cd6803db3ab/data_point_fd636240-b36a-4cf1-ae22-c57cb1cd4296/run/000_create_prototype_building/output/Warehouse-NECB 2011-NECB HDD Method-CAN_AB_Fort.McMurray.719320_CWEC.epw/SR0.",
               "Finished run.",
               "Started Adding HVAC",
               "Finished adding HVAC",
               "Started Adding Service Water Heating",
               "Adding service water loop.",
               "Adding water heater.",
               "Template =",
               "Finished adding Service Water Heating",
               "Set sizing factors to 1.3 for heating and 1.3 for cooling.",
               "Running simulation /mnt/openstudio/analysis_4fef0e0f-5396-4c55-a6e1-2cd6803db3ab/data_point_fd636240-b36a-4cf1-ae22-c57cb1cd4296/run/000_create_prototype_building/output/Warehouse-NECB 2011-NECB HDD Method-CAN_AB_Fort.McMurray.719320_CWEC.epw/SR1.",
               "Finished run.",
               "Started applying multizone vav OA sizing.",
               "Finished applying multizone vav OA sizing.",
               "Started applying prototype HVAC assumptions.",
               "For Fan Constant Volume 1: allowed_hp = 1.01HP; motor eff = 61.5%; total fan eff = 40% based on 1189 cfm.",
               "For Fan Constant Volume 2: allowed_hp = 8.84HP; motor eff = 61.5%; total fan eff = 40% based on 12922 cfm.",
               "For Fan Constant Volume 3: allowed_hp = 3.66HP; motor eff = 61.5%; total fan eff = 40% based on 5343 cfm.",
               "Sp-Zone1 Office Sys-3 Flr-1 Sch-A HPlcmt-south ZN NECB System 3 PSZ does not require an economizer because the total cooling capacity of 31702 Btu/hr is less than the minimum capacity of 68243 Btu/hr.",
               "Sp-Zone3 Bulk Storage Sys-4 Flr-1 Sch-A HPlcmt-east ZN NECB System 4 PSZ requires an economizer because the total cooling capacity of 344475 Btu/hr exceeds the minimum capacity of 68243 Btu/hr.",
               "Sp-Zone2 Fine Storage Sys-4 Flr-1 Sch-A HPlcmt-south ZN NECB System 4 PSZ requires an economizer because the total cooling capacity of 142435 Btu/hr exceeds the minimum capacity of 68243 Btu/hr.",
               "Finished applying prototype HVAC assumptions.",
               "Started applying HVAC efficiency standards.",
               "For Sp-Zone1 Office Sys-3 Flr-1 Sch-A HPlcmt-south ZN NECB System 3 PSZ, ERV not required based on 0% OA flow, design supply air flow of 1189cfm, and climate zone NECB HDD Method.",
               "For Sp-Zone1 Office Sys-3 Flr-1 Sch-A HPlcmt-south ZN NECB System 3 PSZ, ERV not required based on exhaust heat content.",
               "For NECB 2011 NECB HDD Method:  Sp-Zone1 Office Sys-3 Flr-1 Sch-A HPlcmt-south ZN NECB System 3 PSZ: DCV is not required for any system.",
               "For Sp-Zone1 Office Sys-3 Flr-1 Sch-A HPlcmt-south ZN NECB System 3 PSZ: Annual occupied hours = 2860 hr/yr, assuming a 0.15 occupancy threshold.  This schedule will be used as the HVAC operation schedule.",
               "For Sp-Zone1 Office Sys-3 Flr-1 Sch-A HPlcmt-south ZN NECB System 3 PSZ: Setting motorized OA damper schedule to Sp-Zone1 Office Sys-3 Flr-1 Sch-A HPlcmt-south ZN NECB System 3 PSZ Occ Sch.",
               "For Sp-Zone2 Fine Storage Sys-4 Flr-1 Sch-A HPlcmt-south ZN NECB System 4 PSZ, ERV not required based on 0% OA flow, design supply air flow of 5343cfm, and climate zone NECB HDD Method.",
               "For Sp-Zone2 Fine Storage Sys-4 Flr-1 Sch-A HPlcmt-south ZN NECB System 4 PSZ, ERV not required based on exhaust heat content.",
               "For NECB 2011 NECB HDD Method:  Sp-Zone2 Fine Storage Sys-4 Flr-1 Sch-A HPlcmt-south ZN NECB System 4 PSZ: DCV is not required for any system.",
               "For Sp-Zone2 Fine Storage Sys-4 Flr-1 Sch-A HPlcmt-south ZN NECB System 4 PSZ: Annual occupied hours = 2860 hr/yr, assuming a 0.15 occupancy threshold.  This schedule will be used as the HVAC operation schedule.",
               "For Sp-Zone2 Fine Storage Sys-4 Flr-1 Sch-A HPlcmt-south ZN NECB System 4 PSZ: Because the system has an economizer, it requires a motorized OA damper.",
               "For Sp-Zone2 Fine Storage Sys-4 Flr-1 Sch-A HPlcmt-south ZN NECB System 4 PSZ: Setting motorized OA damper schedule to Sp-Zone2 Fine Storage Sys-4 Flr-1 Sch-A HPlcmt-south ZN NECB System 4 PSZ Occ Sch.",
               "For Sp-Zone3 Bulk Storage Sys-4 Flr-1 Sch-A HPlcmt-east ZN NECB System 4 PSZ, ERV not required based on 0% OA flow, design supply air flow of 12922cfm, and climate zone NECB HDD Method.",
               "For Sp-Zone3 Bulk Storage Sys-4 Flr-1 Sch-A HPlcmt-east ZN NECB System 4 PSZ, ERV not required based on exhaust heat content.",
               "For NECB 2011 NECB HDD Method:  Sp-Zone3 Bulk Storage Sys-4 Flr-1 Sch-A HPlcmt-east ZN NECB System 4 PSZ: DCV is not required for any system.",
               "For Sp-Zone3 Bulk Storage Sys-4 Flr-1 Sch-A HPlcmt-east ZN NECB System 4 PSZ: Annual occupied hours = 2860 hr/yr, assuming a 0.15 occupancy threshold.  This schedule will be used as the HVAC operation schedule.",
               "For Sp-Zone3 Bulk Storage Sys-4 Flr-1 Sch-A HPlcmt-east ZN NECB System 4 PSZ: Because the system has an economizer, it requires a motorized OA damper.",
               "For Sp-Zone3 Bulk Storage Sys-4 Flr-1 Sch-A HPlcmt-east ZN NECB System 4 PSZ: Setting motorized OA damper schedule to Sp-Zone3 Bulk Storage Sys-4 Flr-1 Sch-A HPlcmt-east ZN NECB System 4 PSZ Occ Sch.",
               "For Fan Constant Volume 1: motor nameplate = 0.7407872015394902HP, motor eff = 61.5%.",
               "For Fan Constant Volume 2: motor nameplate = 8HP, motor eff = 61.5%.",
               "For Fan Constant Volume 3: motor nameplate = 3HP, motor eff = 61.5%.",
               "For Service Water Loop Pump: brake hp = 0.0HP, motor nameplate = 0.1HP, motor eff = 70.0%.",
               "For Pump Variable Speed 1: brake hp = 0.99HP, motor nameplate = 1.0HP, motor eff = 85.5%.",
               "For NECB 2011: Coil Cooling DX Single Speed 1: AirCooled All Other Single Package Capacity = 32kBtu/hr; SEER = 14.0",
               "For NECB 2011: Coil Cooling DX Single Speed 2: AirCooled All Other Single Package Capacity = 344kBtu/hr; EER = 8.21",
               "For NECB 2011: Coil Cooling DX Single Speed 3: AirCooled All Other Single Package Capacity = 142kBtu/hr; EER = 9.7",
               "For NECB 2011: Primary Boiler: Gas Hot Water Capacity = 369kBtu/hr; Thermal Efficiency = 0.83",
               "For NECB 2011: Secondary Boiler: Gas Hot Water Capacity = 369kBtu/hr; Thermal Efficiency = 0.83",
               "For NECB 2011: 40.0gal NaturalGas Water Heater - 40kBtu/hr 0.82 Therm Eff; thermal efficiency = 0.82, skin-loss UA = 6Btu/hr",
               "Finished applying HVAC efficiency standards.",
               "Started adding daylighting controls.",
               "Finished adding daylighting controls.",
               "Total Time = 50sec."
            ],
            "step_result" : "Success",
            "step_values" : [
               {
                  "name" : "building_type",
                  "value" : "Warehouse"
               },
               {
                  "name" : "template",
                  "value" : "NECB 2011"
               },
               {
                  "name" : "climate_zone",
                  "value" : "NECB HDD Method"
               },
               {
                  "name" : "epw_file",
                  "value" : "CAN_AB_Fort.McMurray.719320_CWEC.epw"
               }
            ],
            "step_warnings" : [
               "[openstudio.EpwFile] Successive data points (1973-Jan-31 to 1971-Feb-01, ending on line 753) are greater than 1 day apart in EPW file '/usr/local/bundle/bundler/gems/openstudio-standards-f448df66933d/openstudio-standards/data/weather/CAN_AB_Fort.McMurray.719320_CWEC.epw'. Data will be treated as typical (TMY)",
               "[openstudio.EpwFile] Successive data points (1973-Jan-31 to 1971-Feb-01, ending on line 753) are greater than 1 day apart in EPW file '/usr/local/bundle/bundler/gems/openstudio-standards-f448df66933d/openstudio-standards/data/weather/CAN_AB_Fort.McMurray.719320_CWEC.epw'. Data will be treated as typical (TMY)",
               "[openstudio.weather.Model] Could not find ground temperatures; will use generic temperatures, which will skew results.",
               "[openstudio.EpwFile] Successive data points (1973-Jan-31 to 1971-Feb-01, ending on line 753) are greater than 1 day apart in EPW file '/usr/local/bundle/bundler/gems/openstudio-standards-f448df66933d/openstudio-standards/data/weather/CAN_AB_Fort.McMurray.719320_CWEC.epw'. Data will be treated as typical (TMY)",
               "[openstudio.EpwFile] Successive data points (1973-Jan-31 to 1971-Feb-01, ending on line 753) are greater than 1 day apart in EPW file '/usr/local/bundle/bundler/gems/openstudio-standards-f448df66933d/openstudio-standards/data/weather/CAN_AB_Fort.McMurray.719320_CWEC.epw'. Data will be treated as typical (TMY)",
               "[openstudio.standards.Fan] For Fan Constant Volume 1, there is no greater nominal HP.  Use the efficiency of the largest motor category.",
               "[openstudio.standards.Fan] For Fan Constant Volume 2, there is no greater nominal HP.  Use the efficiency of the largest motor category.",
               "[openstudio.standards.Fan] For Fan Constant Volume 3, there is no greater nominal HP.  Use the efficiency of the largest motor category.",
               "[openstudio.EpwFile] Successive data points (1973-Jan-31 to 1971-Feb-01, ending on line 753) are greater than 1 day apart in EPW file '/usr/local/bundle/bundler/gems/openstudio-standards-f448df66933d/openstudio-standards/data/weather/CAN_AB_Fort.McMurray.719320_CWEC.epw'. Data will be treated as typical (TMY)",
               "[openstudio.EpwFile] Successive data points (1973-Jan-31 to 1971-Feb-01, ending on line 753) are greater than 1 day apart in EPW file '/usr/local/bundle/bundler/gems/openstudio-standards-f448df66933d/openstudio-standards/data/weather/CAN_AB_Fort.McMurray.719320_CWEC.epw'. Data will be treated as typical (TMY)",
               "[openstudio.EpwFile] Successive data points (1973-Jan-31 to 1971-Feb-01, ending on line 753) are greater than 1 day apart in EPW file '/usr/local/bundle/bundler/gems/openstudio-standards-f448df66933d/openstudio-standards/data/weather/CAN_AB_Fort.McMurray.719320_CWEC.epw'. Data will be treated as typical (TMY)",
               "[openstudio.standards.Fan] For Fan Constant Volume 1, there is no greater nominal HP.  Use the efficiency of the largest motor category.",
               "[openstudio.standards.Fan] For Fan Constant Volume 2, there is no greater nominal HP.  Use the efficiency of the largest motor category.",
               "[openstudio.standards.Fan] For Fan Constant Volume 3, there is no greater nominal HP.  Use the efficiency of the largest motor category."
            ]
         }
      },
      {
         "arguments" : {
            "__SKIP__" : false
         },
         "measure_dir_name" : "view_model",
         "name" : "view_model",
         "result" : {
            "completed_at" : "20170710T192444Z",
            "measure_class_name" : "ViewModel",
            "measure_display_name" : "ViewModel",
            "measure_name" : "view_model",
            "measure_taxonomy" : "Reporting.QAQC",
            "measure_type" : "ModelMeasure",
            "measure_uid" : "f4669f10-fda5-489d-8e1c-7ca3c2d40378",
            "measure_version_id" : "f4975c5f-7c25-42a2-927b-02d99b4427ef",
            "measure_version_modified" : "20170526T150340Z",
            "measure_xml_checksum" : "1E1F8B97",
            "started_at" : "20170710T192444Z",
            "stderr" : "",
            "stdout" : "[OpenStudio.Measure] <0> OSArgumentVector is deprecated, use OpenStudio::Measure::OSArgumentVector instead.\n",
            "step_errors" : [],
            "step_files" : [
               "/mnt/openstudio/analysis_4fef0e0f-5396-4c55-a6e1-2cd6803db3ab/data_point_fd636240-b36a-4cf1-ae22-c57cb1cd4296/run/001_view_model/report.html",
               "/mnt/openstudio/analysis_4fef0e0f-5396-4c55-a6e1-2cd6803db3ab/data_point_fd636240-b36a-4cf1-ae22-c57cb1cd4296/run/001_view_model/report.json"
            ],
            "step_final_condition" : "Report written to <a href='file:////mnt/openstudio/analysis_4fef0e0f-5396-4c55-a6e1-2cd6803db3ab/data_point_fd636240-b36a-4cf1-ae22-c57cb1cd4296/run/001_view_model/report.html'>report.html</a>.",
            "step_info" : [ "No changes made to the model." ],
            "step_result" : "NA",
            "step_values" : [
               {
                  "name" : "view_model_html_zip",
[...]
wRK4lbvx0IpLoSorRoOTO5Hrc86ZTdaBIS1lvbZTcsLp6XprGiyNkdvqGN6kDX1z9m5J0rs5dUXhdLxxOorh1d9iJocZFFKbdG+mPJ6nSOI+Ckb7GYnR+Oz76sfuq+2Ei46soSb1UnMh0GvmZ8M/SS/1w/GKjaLxebibD2J+m/yK/83Jz5F8/3kzeQ4tlWsIfHbaGyp2Psuf3/FDGZ26/JfJOOWyN/GQaePMDP1Tn4XTPg2j46YcWzZeJLh5BpPNpdr/ql81L79pbfFp4p7ryQ3qux+JwdRZPKG9Orsft1ncPGTtiSx1tk/1TGkn3DnQ5/euUqC9K+VHnqDqD/AywoZp+1IlPi2p/a+dNFSi5bEoDNqUtNqVtNqUdNqVdNqU9NqV9NqW1wzctpfi83OFzc4fPzx0+R3f4PN3hc3WHz9cdPmd3+Lzd5fN2l3FO5/N2l8/bXUNvf1h4STMDxnJkIFTQV2ZCBT1lJlTQT2ZCBXOCmVDBjGAmVDAfmAkVzAZmQgVzgZlQUeIzVGLz7aK0Z6jE5t1FSc9Qic2/i1KeoRKbhxclPEMlNh8vSneGSnzzN5uPF+U6QyUTH39Q+EIzzanaGAZKBd1kqFTQTYZKBd1kqFQwFRgqFUwFhkoFU4GhUsFUYKhUMBUYKhXlO1MpPi8vynimUnx+XpTzTKX4PL0o65lK8fl6Ud4zleLz9qLMZyrFOKfzeXtR8jOVKvV2HEaPw+iXQhq34TD6BxcOo9fBwmH0OIy+yoXD6NWFw+hxGH1+4TD64m/iMPpyAXXhMPqncWYjcIADHOAABzjAAQ5wgAMc4Dx5nG/sKEfQgAY0oAENaEADGtCABjSgeTo039aZjcABDnCAAxzgAAc4wAEOcIDzTeF8xeJsr4apf+2n87fyWgai/R+UZ/sWy7MtB+lpVGJznkAlNqexSmz9Xn+bpRCbldCAS2iLS2ibS2iHS2iXS2iPS2ifS2jtvXw7JTbfdtic22HzbofNvR02/3bYHNxh83CHzcUdNh932Xzc5Zu/2XzcZfNx18zH9SuurWtVL7hmo0P3UvVyazY69CxQvdiajQ49A1QvtWajQ0e/RaE1KyEujy5IbxZV1qyEuJy6ILdZlFizEuLy64LEZlFfzWpm5PLsgqxmUVzNSojLswtSWvXKaus6FoXVrIToLrIoq2YlRAe/RVE1KyE6+C1KqlkJ0cFvU1DNTonNtwsym001NTslNvcuSG42pdTslNg8vCC/2dRRs5sr2Xy8IMXZFFGzU2Lz8YIshwpqqKCGCmoPCFFBTV2ooIYKaqigVnChghoqqBk9FSqordk3+D4qqN2/UEHt7qphw9Y3VmgAOMABDnCAAxzgAAc4wAEOcJ48zjdWfwA0oAENaEADGtCABjSgAQ1ong7N36buAXCAAxzgAAc4wAEOcIADHOBUt/cVKqihYNo3VTDtZDiRo1nWy+p1qESmwuk/jbJp7hMom+Y2VjZtJ38ptGqJGy6hAZfQFpfQNpfQDpfQLpfQHpfQPpfQ2tv3dkpsvu2wObfD5t0Om3s7bP7tsDm4w+bhDpuLO2w+7rL5uMs3f7P5uMvm466Zj+uXTVvXql42zUaH7qXqZdNsdOhZoHrZNBsdegaoXjbNRoeOfouyaVZCXB5dkN4syqZZCXE5dUFusyibZiXE5dcFic2ibJrVzMjl2QVZzaJsmpUQl2cXpLTqZdPWdSzKplkJ0V1kUTbNSogOfouyaVZCdPBblE2zEqKD36Zsmp0Sm28XZDabsml2SmzuXZDcbMqm2SmxeXhBfrMpm2Y3V7L5eEGKsymbZqfE5uMFWQ5l01A2DWXTHhCibJq6UDYNZdNQNq3gQtk0lE0zeiqUTVuzb/B9lE27f6Fs2t1Vwy6tb6y6AHCAAxzgAAc4wAEOcIADHOA8eZxvrOgAaEADGtCABjSgAQ1oQAMa0Dwdmr9NsQPgAAc4wAEOcIADHOAABzjAqW4PZdOWF8qm3ZVNc55G2bTBEyibNmisbFq/57JUTbPRGTDpbDHpbDPp7DDp7DLp7DHp7DPprL10byXE5dEOl0s7XD7tcDm1w+XVDpdbO1x+7XA5tsPl2S6XZ7tsczWXZ7tcnu0aebZ+ebQ1qerV0SxkyB6qXhvNQoaM++qV0SxkyJivXhfNQoaMd4uqaDY6TH5MpzGLkmg2OkyuTOcwi3poNjpM3kwnMItiaDbzIJM/09nLohKajQ6TP9Opq3oZtDUZiypoNjpk91jUQLPRIcPdogKajQ4Z7hb1z2x0yHC3qX5mJcTl0XQGsyl9ZiXE5dR0ErOpe2YlxOXXdB6zKXpmNTNyeTadymwqnlkJcXk2nc1Q7gzlzlDu7AEhyp2pC+XOUO4M5c4KLpQ7Q7kzo6dCubM1+wbfR7mz+xfKnd1dNeyu+saqAgAHOMABDnCAAxzgAAc4wAHOk8f5xooFgAY0oAENaEADGtCABjSgAc3TofnbFCkADnCAAxzgAAc4wAEOcIADnOr2UO5seaHc2arc2eBpVDvbegLVzrYarHbW32Yqd2YhNOAS2uIS2uYS2uES2uUS2uMS2ucS+uJtexslNt922JzbYfNuh829HTb/dtgc3GHzcIfNxR02H3fZfNzlm7/ZfNxl83HXzMdNqqDd17Ipg1Zdh+4lm0Jo1XXoWcCmFFp1HXoGsCmGVl2Hjn6rcmgWQlweXZDerCqiWQhxOXVBbrMqimYhxOXXBYnNqi6axczI5dkFWc2qNJqFEJdnF6Q0m+po93WsyqNZCNFdZFUgzUKIDn6rEmkWQnTwWxVJsxCig9+uTJqNEptvF2Q2u0ppNkps7l2Q3OyKpdkosXl4QX6zq5dmM1ey+XhBirMrmWajxObjBVkOVdNQNQ1V0x4QomqaulA1DVXTUDWt4ELVNFRNM3oqVE1bs2/wfVRNu3+hatrdVcMmrW+suABwgAMc4AAHOMABDnCAAxzgPHmcb6zmAGhAAxrQgAY0oAENaEADGtA8HZq/Ta0D4AAHOMABDnCAAxzgAAc4wKluD1XTlheqpq2qpm09japp20+gatp2Y1XTdvJ3QqtWuOESGnAJbXEJbXMJ7XAJ7XIJ7XEJ7XMJrb18b6fE5tsOm3M7bN7tsLm3w+bfDpuDO2we7rC5uMPm4y6bj7t88zebj7tsPu6a+bh+1bR1repV02x06F6qXjXNRoeeBapXTbPRoWeA6lXTbHTo6LeommYlxOXRBenNomqalRCXUxfkNouqaVZCXH5dkNgsqqZZzYxcnl2Q1SyqplkJcXl2QUqrXjVtXceiapqVEN1FFlXTrITo4LeommYlRAe/RdU0KyE6+G2qptkpsfl2QWazqZpmp8Tm3gXJzaZqmp0Sm4cX5Debqml2cyWbjxekOJuqaXZKbD5ekOVQNQ1V01A17QEhqqapC1XTUDUNVdMKLlRNQ9U0o6dC1bQ1+wbfR9W0+xeqpt1dNWzS+saKCwAHOMABDnCAAxzgAAc4wAHOk8f5xmoOgAY0oAENaEADGtCABjSgAc3Tofnb1DoADnCAAxzgAAc4wAEOcIADnOr2UDVteaFq2qpq2vbTqJq28wSqpu00VjWt33NZiqbZ6AyYdLaYdLaZdHaYdHaZdPaYdPaZdNbeubcS4vJoh8ulHS6fdric2uHyaofLrR0uv3a4HNvh8myXy7Ndtrmay7NdLs92jTxbvzramlT14mgWMmQPVS+NZiFDxn31wmgWMmTMVy+LZiFDxrtFUTQbHSY/ptOYRUU0Gx0mV6ZzmEU5NBsdJm+mE5hFLTSbeZDJn+nsZVEIzUaHyZ/p1FW9CtqajEURNBsdsnssSqDZ6JDhblEAzUaHDHeL8mc2OmS42xQ/sxLi8mg6g9lUPrMS4nJqOonZlD2zEuLyazqP2dQ8s5oZuTybTmU2Bc+shLg8m85mqHaGameodvaAENXO1IVqZ6h2hmpnBReqnaHamdFTodrZmn2D76Pa2f0L1c7urho2V31jRQGAAxzgAAc4wAEOcIADHOAA58njfGO1AkADGtCABjSgAQ1oQAMa0IDm6dD8bWoUAAc4wAEOcIADHOAABzjAAU51e6h2trxQ7WxV7WznaVQ7230C1c52G6x21t9mKndmITTgEtriEtrmEtrhEtrlEtrjEtrnEvribXsbJTbfdtic22HzbofNvR02/3bYHNxh83CHzcUdNh932Xzc5Zu/2XzcZfNx18zHTaqg3deyKYNWXYfuJZtCaNV16FnAphRadR16BrAphlZdh45+q3JoFkJcHl2Q3qwqolkIcTl1QW6zKopmIcTl1wWJzaoumsXMyOXZBVnNqjSahRCXZxekNJvqaPd1rMqjWQjRXWRVIM1CiA5+qxJpFkJ08FsVSbMQooPfrkyajRKbbxdkNrtKaTZKbO5dkNzsiqXZKLF5eEF+s6uXZjNXsvl4QYqzK5lmo8Tm4wVZDlXTUDUNVdMeEKJqmrpQNQ1V01A1reBC1TRUTTN6KlRNW7Nv8H1UTbt/oWra3VXDJq1vrLgAcIADHOAABzjAAQ5wgAMc4Dx5nG+s5gBoQAMa0IAGNKABDWhAAxrQPB2av02tA+AABzjAAQ5wgAMc4AAHOMCpbg9V05YXqqatqqbtPo2qaXtPoGraXmNV03byd0KrVrjhEhpwCW1xCW1zCe1wCe1yCe1xCe1zCa29fG+nxObbDptzO2ze7bC5t8Pm3w6bgztsHu6wubjD5uMum4+7fPM3m4+7bD7umvm4ftW0da3qVdNsdOheql41zUaHngWqV02z0aFngOpV02x06Oi3qJpmJcTl0QXpzaJqmpUQl1MX5DaLqmlWQlx+XZDYLKqmWc2MXJ5dkNUsqqZZCXF5dkFKq141bV3HomqalRDdRRZV06yE6OC3qJpmJUQHv0XVNCshOvhtqqbZKbH5dkFms6maZqfE5t4Fyc2mapqdEpuHF+Q3m6ppdnMlm48XpDibqml2Smw+XpDlUDUNVdNQNe0BIaqmqQtV01A1DVXTCi5UTUPVNKOnQtW0NfsG30fVtPsXqqbdXTVs0vrGigsABzjAAQ5wgAMc4AAHOMABzpPH+cZqDoAGNKABDWhAAxrQgAY0oAHN06H529Q6AA5wgAMc4AAHOMABDnCAA5zq9lA1bXmhatqqatre06iatv8EqqbtN1Y1rd9zWYqm2egMmHS2mHS2mXR2mHR2mXT2mHT2mXTW3rm3EuLyaIfLpR0un3a4nNrh8mqHy60dLr92uBzb4fJsl8uzXba5msuzXS7Pdo08W7862ppU9eJoFjJkD1UvjWYhQ8Z99cJoFjJkzFcvi2YhQ8a7RVE0Gx0mP6bTmEVFNBsdJlemc5hFOTQbHSZvphOYRS00m3mQyZ/p7GVRCM1Gh8mf6dRVvQramoxFETQbHbJ7LEqg2eiQ4W5RAM1Ghwx3i/JnNjpkuNsUP7MS4vJoOoPZVD6zEuJyajqJ2ZQ9sxLi8ms6j9nUPLOaGbk8m05lNgXPrIS4PJvOZqh2hmpnqHb2gBDVztSFameodoZqZwUXqp2h2pnRU6Ha2Zp9g++j2tn9C9XO7q4aNld9Y0UBgAMc4AAHOMABDnCAAxzgAOfJ43xjtQJAAxrQgAY0oAENaEADGtCA5unQ/G1qFAAHOMABDnCAAxzgAAc4wAFOdXuodra8UO1sVe1s/0lUOxv0v/1qZxljU9XOnK1+r3/vcrZYip8xyg7qkd2qR3a7HtmdemR365Hdq0d2vx7ZtXf9OXVrijOnpkBzaoo0p6ZQc2qKNaemYHNqijanpnBzaoo3t6Z4c+vKazXFm1tTvLk28aZfVa5IuXqROT5V3d6tXoKOT1V3JqteoI5PVXcWq16+jk9VdwazKG7HKFtPdGkvFywq4THK1hNg2msFi7J5jLL1xJj2QsGixh5jVqgnyrRXCRYF+Rhl64ky7SVC9ep9RaoWxfwYZXW71qLUH6Os7gRmUQiQUVZ3ArMoE8goqzuB2RQR5NStKc60Vwo2FQc5dWsKNe3Fgk15Qk7dmqJNe71gU8uQM0/UFG/aSwabwoecujXFm/aqAVUSUSURVRIfEKJKorpQJRFVElElseBClURUSTR6KlRJXLNv8H1USbx/oUri3VXDpsxvrJgIcIADHOAABzjAAQ5wgAMc4Dx5nG+sxghoQAMa0IAGNKABDWhAAxrQPB2av01tE+AABzjAAQ5wgAMc4AAHOMCpbu8rVEn8IK+mMvbSWSxF+80GiiZ+W0UTZXztD6X4j6c8720UTYUaMLXPeav/5mkUUHSeQAFFp7kCiur/q1ZqYtIZMOlsMelsM+nsMOnsMunsMensM+msFxiwEeLyaIfLpR0un3a4nNrh8mqHy60dLr92uBzb4fJsl8uzXba5msuzXS7Pdo0826Cw330pi0p+1WXIHrKo1Vddhox7i2p81WXImLeot1ddhox3m4p6FjpMfkynMZsieRY6TK5M5zCbuncWOkzeTCcwm1J2FvMgkz/T2cumOp2FDpM/06nLouDcfRmbCnMWOmT32NSQs9Ahw92mSpyFDhnuNnXgLHTIcLeq9GYjxOXRdAazKt5mI8Tl1HQSs6rHZiPE5dd0HrMqsWYzM3J5Np3KrKqm2QhxeTadzR4I/R77Ueync+GIrmifzMINVZJqp/t/vLDbd7r5/7+Ww676Bebjaa6/9oPeq1dbW/v7DCbc+k0M6jexVb+J7fpN7NRvYrd+E3v1m9iv38RaZq/LRgPx7TQQ4E4DEe40EOJOAzHuNBDkTgNR7jQQ5k4Dce42EOduE3m8gTh3G4hzt1qcu7kNL6Vs9PWWVYOB6+7tMJigR4PNBD0YbCbosWAzQU+5bCboGZfNBD3hspmg51s2E/R0y2aiYFnFZ6OB+C5YVvHZaCDCC5ZVfDYaiPGCZRWfjQaivGBZxWejgTgvWFbx2WgijzcQ5wXLKj4b1eJ8oGy8iX3Chruvt6xynN3dwYDBBD0abCbowWAzQY8Fmwl6ymUzQc+4bCboCZfNBD3fspmg90axmSjYEMhng95RxWeD3mzFZ4Peh8Vng96ixWeD3pfIZ4Pesshng97NyGeD3ujIZ6OBOC9YVvHZaCKPN5DIC5ZVfDaqpfItZePDZEbZ2NNbVu1n1/aPDCbo0WAzQQ8Gmwl6LNhM0MsqNhP0sorNBL2sYjNBL6vYTNDTLZuJgmUVnw16WcVng15W8dmgl1V8NuhlFZ8NelnFZ4NeVvHZoJdVfDboZRWfjQbivGBZxWejiTzeQCIvWFbx2aiWyreVjf/IEWVjV29Z9fr10dHuLoMJejTYTNCDwWaCHgs2E/Syis0EvaxiM0Evq9hM0MsqNhP0dMtmomBZxWeDXlbx2aCXVXw26GUVnw16WcVng15W8dmgl1V8NuhlFZ8NelnFZ6OBOC9YVvHZaCKPN5DIC5ZVfDaqpfKdfOk2k5SNHb1l1dHRzg6LCXo02EzQg8Fmgh4LNhP0sorNBL2sYjNBL6vYTNDLKjYT9HTLZqJgWcVng15W8dmgl1V8NuhlFZ8NelnFZ4NeVvHZoJdVfDboZRWfDXpZxWejgTgvWFbx2WgijzeQyAuWVXw2qqXyXWXj14jaFu9u6y2r9vZcd3ubwQQ9Gmwm6MFgM0GPBZsJelnFZoJeVrGZoJdVbCboZRWbiaK6U0wmCoutcdkoqlbFZaOokBWXjaIaV1w2ispfcdkoqvnGZaOoHByXjaJKcVw2iorIcdloIM4LllV8NprI4w0k8oJlFZ+N8lT+UafC67ImszgUobxZFZDN68a2k+txJ68AW1oqdlXYOZHpj9EsHCXt7X5HOM52RwzU/7nbeuVmbzOMu6LUo9GRl8pxFM9f3frJoizy3fNrVI/OBN7FIxm/n6kqxdo3Ko75Osev0ktmsVxgqELLy36vuTw3mtGMZjSjGc1oRjOa0YxmNKMZzWhGM5rRjGY0oxnNaEYzmtGMZjSjGc1oRjOa0YxmNKMZzWhGM5rRjGY0oxnNaEYzmtGMZjSjGc1oRjOan1XzvBddyzj2R/JXT71Y6/T6lu+rqldjk/VXY09k7Mtk+Xptq7N6gXgaRGkv8ENZ+ops8th7uuVv1ia9/Oj5aRR4qR+FGVQrSeW0ey4voli29N58fivHMhytP9Dis/ZOvyMG6s3lvnqRWf3TCuRFqsBKpFeyvbOxTI/DVPVPZuJiFg5z0vaG+LNEYkUo7+4+LX2XW13+hWinEz/pJfmo6BlS172beln/HXvDSfsvYFO1Fb56dTxjX+qeTaPEV4Kvs491nmZ1KZlHqOLoxgxpheWHI6nioet0DO9eXZdVb7zwZaD8rb3s00WcjONoNpUj8f334h/Lz297ZxMvWb7/rgJs437r/NHWrEN63nj8RtnoBTIcpxPxUrji36L1Kgha4mD9G0ngD2W762yc9j9ulMbbgyeJYtG+zB6l/4O4zMwsXXVpV332z2zGMR8gdSk3XuqdXn7sfZJzcXh4uOi8aoq56nLYL00fdXWdx9L7VOXmz4b3mH5f9dfy6Q6VWytnWHpKXsihd+YliT8O5ehIlYhITvOe/FitK1cDPZ0lk3bVsciG9GAxntUjKQgOdJ6yp75Z1UqSxtEnqWdn8d2qlqKpN/TTuZ6p5ZcrP1VuYmWqqspqIlmfVqqEh/Hko65VOK9PPKIrHFM1k3DTZ/3cybOq1vc/l60p1LW5KX7/44P477s/3ouTd+8//PLbT+Ltu59+ORI/H78/1hN4k83a8tZTSzSRRiKJ4lSEs6vMD4YiL2mSCC8ZZosXPxxrKK76Xuncy8xeR5zrTy6xTGdxKKZenMg3QeSlbU9N+RvZUN777Dz/TKszy5do98wuH6FM+HO9lV7u1p95uOfB3n4xkhfeLEjFNI6yOUy+6IgX3+3tHR0dH7+oufAMcIADHOAABzjAAQ5wgAMc4DxPHJHMrrIfgcVIqg/FyJsroliOQAMa0IAGNKABDWhAAxrQgAY0xTQ3+dasL2jOg5kEDnCAAxzgAAc4wAEOcIADHOBUwbk7N9BR5waezKhzAwdO/he2V6+2tvb3QQpSkIIUpCAFKUhBClKQghSkIAXp0yB1c1IvpUj7Oelg4Lp7OyAFKUhBClKQghSkIAUpSEEKUpCC9GmQDhTpm9gnSN39nNRxdncHA5CCFKQgBSlIQQpSkIIUpCAFKUhB+jRItxTph8mMIt3LSfeza/tHkIIUpCAFKUhBClKQghSkIAUpSEH6NEi3Fel/5Igi3c1JX78+OtrdBSlIQQpSkIIUpCAFKUhBClKQghSkT4N0J//NxExSpDs56dHRzg5IQQpSkIIUpCAFKUhBClKQghSkIH0qpLuK9NeIqizobueke3uuu70NUpCCFKQgBSlIQQpSkIIUpCAFKUgbI12hjGLvpl0qdttL/TSQJxNvKnupvE3bL36OZnFSjjF/eOdr/0qGiR+FgUxyhRKJzU3xajQSnsiVxI2fTkQSXUkxGpTcmVyPe950KsNRu6VstzZKblhdPS9N43brttURO33Dm+bZTa7+TUk6D+QCr+uFw0kUZ/e3AnlhQLvUuIjCtHsj/fEkVRrnUTDS11iMzcm0+78olI54d3HhD6U4mSfdgXgTxF1HnAwn3Vfi59+D4VXaTaJZNgz/+038dnz0o/paKq/EQPx+8j/xbjhU332xUTSwLzeTYexP03+R33m5OfKvH28m76HFMi3hjw5bQ+X1R1lHeX4o47OB2xJ57x22Rn4yDbz5gR8GWVP3PIiGn35o0XyZ6OIRRDqfZverDty89K69xaeFd6rr2ouVg4pDMfKvpoHshfLm5Hrcbn33kLEjtvr9/J/SgFOyIy/1Mt3TP1uBdy6D1kFrJC+8WZCKaRxd+IFsdRYtZ7etA6fX77SuvWAml/8/VPNSdk821RwdHR+3Pne0dFwmnQGTzhaTzjaTzg6Tzi6Tzh6Tzj6TjtPnEuLyaIfLpR0un3a4nNrh8mqHy60dLr92uBzb4fJsl8uzXba5msuzXS7Pdo08WySzq6u1g6q1MlosRwYyZB+ZyZA9ZCZD9o+ZDBn3ZjJk1JvJkDFvJkNGvJkMGe9mMnQiM9Rh8mM6jRnqMHkyncQMdZh8mU5hhjpM3kwnMEMdJn+m05ehDte8zOTPdO4y1NH35xs/TM3T1rn6SF+H7B5DHbJ7DHXI7jHUIcPdUIcMd0MdMtwNdchwN9Qhw91Qh85fpkJcHk1nMFMhLp+mc5ipEJdX01nMVIjLr+k8ZirE5dl0JjMVYpuruTybTmamQvqeffeXi9KThak011/7QW9x9DCDCbd+E4P6TWzVb2K7fhM79ZvYrd/EXv0m9us3sZbZ67LRQHw7DQS400CEOw2EuNNAjDsNBLnTQJQ7DYS500Ccuw3EudtEHm8gzt0G4tytFuelBzjqLasWJzwymKBHg80EPRhsJuixYDNBT7lsJugZl80EPeGymaDnWzYT9HTLZqJgWcVno4H4LlhW8dloIMILllV8NhqI8YJlFZ+NBqK8YFnFZ6OBOC9YVvHZaCKPNxDnBcsqPhvV4rz0nCy9ZdXiIC0GE/RosJmgB4PNBD0WbCboKZfNBD3jspmgJ1w2E/R8y2aC3hvFZqJgQyCfDXpHFZ8NerMVnw16HxafDXqLFp8Nel8inw16yyKfDXo3I58NeqMjn40G4rxgWcVno4k83kAiL1hW8dmolspLjyPRW1YtzithMEGPBpsJejDYTNBjwWaCXlaxmaCXVWwm6GUVmwl6WcVmgp5u2UwULKv4bNDLKj4b9LKKzwa9rOKzQS+r+GzQyyo+G/Syis8Gvazis0Evq/hsNBDnBcsqPhtN5PEGEnnBsorPRrVUXlr1XW9ZtSgLz2CCHg02E/RgsJmgx4LNBL2sYjNBL6vYTNDLKjYT9LKKzQQ93bKZKFhW8dmgl1V8NuhlFZ8NelnFZ4NeVvHZoJdVfDboZRWfDXpZxWeDXlbx2WggzguWVXw2msjjDSTygmUVn41qqby0uK7esmpRfZfBBD0abCbowWAzQY8Fmwl6WcVmgl5WsZmgl1VsJuhlFZsJerplM1GwrOKzQS+r+GzQyyo+G/Syis8Gvazis0Evq/hs0MsqPhv0sorPBr2s4rPRQJwXLKv4bDSRxxtI5AXLKj4b1VJ5aQ1DvWXVosghgwl6NNhM0IPBZoIeCzYT9LKKzQS9rGIzQS+r2EzQyyo2E0V1p5hMFBZb47JRVK2Ky0ZRISsuG0U1rrhsFJW/4rJRVPONy0ZROTguG0WV4rhsFBWR47LRQJwXLKv4bDSRxxtI5AXLKj4b5an8o06F12X5ZnEoQnmzKiCb141tJ9fjTl4BtrRU7KoGdCLTH6NZOEra2/2OcJztjhio/3O39crN3mYYd6WtR6MjL5XjKJ6/uvWTRQ3lu+fXKDSdCbyLRzJ+P1MljbVvVBzzdY5fpZfMYrnAUFWZl/1ec5FvNKMZzWhGM5rRjGY0oxnNaEYzmtGMZjSjGc1oRjOa0YxmNKMZzWhGM5rRjGY0oxnNaEYzmtGMZjSjGc1oRjOa0YxmNKMZzWhGM5rRjGY0P6vmeS+6lnHsj+Svnnqx1un1Ld9XVa/GJuuvxp7I2JfJ8vXaVmf1AvE0iNJe4Iey9BXZ5LH3dMvfrE16+dHz0yjwUj8KM6hWkspp91xeRLFs6b35/FaOZThaf6DFZ+2dfkcM1JvLffUis/qnFciLVIGVSK9ke2djmR6HqeqfzMTFLBzmpO0N8WeJxIpQ3t19Wvout7r8C9FOJ37SS/JR0TOkrns39bL+O/aGk/ZfwKZqK3z16njGvtQ9m0aJrwRfZx/rPM3qUjKPUMXRjRnSCssPR1LFQ9fpGN69ui6r3njhy0D5W3vZp4s4GcfRbCpH4vvvxT+Wn9/2ziZesnz/XQXYxv3W+aOtWYf0vPH4jbLRC2Q4TifipXDFv0XrVRC0xMH6N5LAH8p219k47X/cKI23B08SxaJ9mT1K/wdxmZlZuurSrvrsn9mMYz5A6lJuvNQ7vfzY+yTn4vDwcNF51RRz1eWwX5o+6uo6j6X3qcrNnw3vMf2+6q/l0x0qt1bOsPSUvJBD78xLEn8cytGRKhGRnOY9+bFaV64GejpLJu2qY5EN6cFiPKtHUhAc6DxlT32zqpUkjaNPUs/O4rtVLUVTb+incz1Tyy9XfqrcxMpUVZXVRLI+rVQJD+PJR12rcF6feERXOKZqJuGmz/q5k2dVre9/LltTqGtzU/z+xwfx33d/vBcn795/+OW3n8Tbdz/9ciR+Pn5/rCfwJpu15a2nlmgijUQSxakIZ1eZHwxFXtIkEV4yzBYvfjjWUFz1vdK5l5m9jjjXn1ximc7iUEy9OJFvgshL256a8jeyobz32Xn+mVZnli/R7pldPkKZ8Od6K73crT/zcM+Dvf1iJC+8WZCKaRxlc5h80REvvtvbOzo6Pn5Rc+EZ4AAHOMABDnCAAxzgAAc4wHmeOCKZXWU/AouRVB+KkTdXRLEcgQY0oAENaEADGtCABjSgAQ1oimlu8q1ZX9CcBzMJHOAABzjAAQ5wgAMc4AAHOMCpgnN3bqCjzg08mVHnBg6c/C9sr15tbe3vgxSkIAUpSEEKUpCCFKQgBSlIQQrSp0Hq5qReSpH2c9LBwHX3dkAKUpCCFKQgBSlIQQpSkIIUpCAF6dMgHSjSN7FPkLr7Oanj7O4OBiAFKUhBClKQghSkIAUpSEEKUpCC9GmQbinSD5MZRbqXk+5n1/aPIAUpSEEKUpCCFKQgBSlIQQpSkIL0aZBuK9L/yBFFupuTvn59dLS7C1KQghSkIAUpSEEKUpCCFKQgBSlInwbpTv6biZmkSHdy0qOjnR2QghSkIAUpSEEKUpCCFKQgBSlIQfpUSHcV6a8RVVnQ3c5J9/Zcd3sbpCAFKUhBClKQghSkIAUpSEEKUpA2RrpCGcXeTbtU7LaX+mkgTybeVPZSeZu2X/wczeKkHGP+8M7X/pUMEz8KA5nkCiUSm5vi1WgkPJEriRs/nYgkupJiNCi5M7ke97zpVIajdkvZbm2U3LC6el6axu3WbasjdvqGN82zm1z9m5J0HsgFXtcLh5Mozu5vBfLCgHapcRGFafdG+uNJqjTOo2Ckr7EYm5Np939RKF3xxg+lOEmj2Btn/50n3S3xJoi7jjgZTrqvxM+/B8OrtJtEs2ww/veb+O346Ef1tVReiS3x+8n/xLvhUH33xUbR8L7cTIaxP03/RX7n5ebIv368mbyHFsu0hD86bA2V7x9l3eVljxmfDQYtkffhYWvkJ9PAmx/4YZA1dc+DaPjphxbNl4kuHkGk82l2v+rGzUvv2lt8Wninuq69WLmpOBQj/2oayF4ob06ux+3Wdw8ZO2Kr38//KQ07JTvyUi/TPf2zFXjnMmgdtEbywpsFqZjG0YUfyFZn0XJ22zpwev1O69oLZnL5/0M1O2X3ZBPO0dHxcetzR0vHZdIZMOlsMelsM+nsMOnsMunsMensM+k4fS4hLo92uFza4fJph8upHS6vdrjc2uHya4fLsR0uz3a5PNtlm6u5PNvl8mzXyLNFMru6WjuuWiujxXJkIEP2kZkM2UNmMmT/mMmQcW8mQ0a9mQwZ82YyZMSbyZDxbiZDJzJDHSY/ptOYoQ6TJ9NJzFCHyZfpFGaow+TNdAIz1GHyZzp9GepwzctM/kznLkMdfX++8cPUPG2dq4/0dcjuMdQhu8dQh+weQx0y3A11yHA31CHD3VCHDHdDHTLcDXXo/GUqxOXRdAYzFeLyaTqHmQpxeTWdxUyFuPyazmOmQlyeTWcyUyG2uZrLs+lkZiqk79l3f78oPV+YSnP9tR/0FgcQM5hw6zcxqN/EVv0mtus3sVO/id36TezVb2K/fhNrmb0uGw3Et9NAgDsNRLjTQIg7DcS400CQOw1EudNAmDsNxLnbQJy7TeTxBuLcbSDO3WpxXnqMo96yanHOI4MJejTYTNCDwWaCHgs2E/SUy2aCnnHZTNATLpsJer5lM0FPt2wmCpZVfDYaiO+CZRWfjQYivGBZxWejgRgvWFbx2WggyguWVXw2GojzgmUVn40m8ngDcV6wrOKzUS3OS0/L0ltWLY7TYjBBjwabCXow2EzQY8Fmgp5y2UzQMy6bCXrCZTNBz7dsJui9UWwmCjYE8tmgd1Tx2aA3W/HZoPdh8dmgt2jx2aD3JfLZoLcs8tmgdzPy2aA3OvLZaCDOC5ZVfDaayOMNJPKCZRWfjWqpvPRQEr1l1eLUEgYT9GiwmaAHg80EPRZsJuhlFZsJelnFZoJeVrGZoJdVbCbo6ZbNRMGyis8Gvazis0Evq/hs0MsqPhv0sorPBr2s4rNBL6v4bNDLKj4b9LKKz0YDcV6wrOKz0UQebyCRFyyr+GxUS+Wltd/1llWL4vAMJujRYDNBDwabCXos2EzQyyo2E/Syis0EvaxiM0Evq9hM0NMtm4mCZRWfDXpZxWeDXlbx2aCXVXw26GUVnw16WcVng15W8dmgl1V8NuhlFZ+NBuK8YFnFZ6OJPN5AIi9YVvHZqJbKS0vs6i2rFjV4GUzQo8Fmgh4MNhP0WLCZoJdVbCboZRWbCXpZxWaCXlaxmaCnWzYTBcsqPhv0sorPBr2s4rNBL6v4bNDLKj4b9LKKzwa9rOKzQS+r+GzQyyo+Gw3EecGyis9GE3m8gUResKzis1EtlZdWMtRbVi1KHTKYoEeDzQQ9GGwm6LFgM0Evq9hM0MsqNhP0sorNBL2sYjNRVHeKyURhsTUuG0XVqrhsFBWy4rJRVOOKy0ZR+SsuG0U137hsFJWD47JRVCmOy0ZRETkuGw3EecGyis9GE3m8gUResKzis1Geyj/qVHhdFnEWhyKUN6sCsnnd2HZyPe7kFWBLS8WuKkEnMv0xmoWjpL3d7wjH2e6Igfo/d1uv3OxthnFX4Ho0OvJSOY7i+atbP1lUUr57fo1y05nAu3gk4/czVdhY+0bFMV/n+FV6ySyWCwxVm3nZ7zWX+kYzmtGMZjSjGc1oRjOa0YxmNKMZzWhGM5rRjGY0oxnNaEYzmtGMZjSjGc1oRjOa0YxmNKMZzWhGM5rRjGY0oxnNaEYzmtGMZjSjGc1oRvOzap73omsZx/5I/uqpF2udXt/yfVX1amyy/mrsiYx9mSxfr211Vi8QT4Mo7QV+KEtfkU0ee0+3/M3apJcfPT+NAi/1ozCDaiWpnHbP5UUUy5bem89v5ViGo/UHWnzW3ul3xEC9udxXLzKrf1qBvEgVWIn0SrZ3NpbpcZiq/slMXMzCYU7a3hB/lkisCOXd3ael73Kry78Q7XTiJ70kHxU9Q+q6d1Mv679jbzhp/wVsqrbCV6+OZ+xL3bNplPhK8HX2sc7TrC4l8whVHN2YIa2w/HAkVTx0nY7h3avrsuqNF74MlL+1l326iJNxHM2mciS+/178Y/n5be9s4iXL999VgG3cb50/2pp1SM8bj98oG71AhuN0Il4KV/xbtF4FQUscrH8jCfyhbHedjdP+x43SeHvwJFEs2pfZo/R/EJeZmaWrLu2qz/6ZzTjmA6Qu5cZLvdPLj71Pci4ODw8XnVdNMVddDvul6aOurvNYep+q3PzZ8B7T76v+Wj7doXJr5QxLT8kLOfTOvCTxx6EcHakSEclp3pMfq3XlaqCns2TSrjoW2ZAeLMazeiQFwYHOU/bUN6taSdI4+iT17Cy+W9VSNPWGfjrXM7X8cuWnyk2sTFVVWU0k69NKlfAwnnzUtQrn9YlHdIVjqmYSbvqsnzt5VtX6/ueyNYW6NjfF7398EP9998d7cfLu/YdffvtJvH330y//f3tn29u2rcXx9/dT8GrA4uDajmXHzsOaXaSOvQxYmyLuMKxBEdAWbSuRJUGkkhhDvvtEWc61k6gm9dDWu3++iFNR/PNH6pxDtlSPu+S8d9lTE+hHUZs9ULlFI8Ij3AsEccNZZAcjEqc04YTyUbR5sd2JguJy7qXOyspMq2SoHlwCJsLAJT4NOOs7HhUVKkP+bvQoV64N42tKk7l5i7bSbTKETcKP5WZ6edp/xu4eO3tlx2JjGjqC+IEXxTC2UyU7Pxwedru93k7JiWeAAxzgAAc4wAEOcIADHOAA55+JQ3g4i/4KTCwmLxKLziVRwCzQgAY0oAENaEADGtCABjSgAc2Xae7jV7Oe0QydkAEHOMABDnCAAxzgAAc4wAEOcLLgPH1voCm/N3AQpn1vYMuMT9hOT/f3j45AClKQghSkIAUpSEEKUpCCFKQgBel2kDZjUirSSBsxaavVbB52QApSkIIUpCAFKUhBClKQghSkIAXpdpC2JGk/sFNIm0cxqWkeHLRaIAUpSEEKUpCCFKQgBSlIQQpSkIJ0O0j3JenHaZhGehiTHkWl/RakIAUpSEEKUpCCFKQgBSlIQQpSkG4HaVuS/sGsNNKDmPTsrNs9OAApSEEKUpCCFKQgBSlIQQpSkIIUpNtB2on/ZSJkaaSdmLTb7XRAClKQghSkIAUpSEEKUpCCFKQgBem2kB5I0ndeWmbBZjsmPTxsNtttkIIUpCAFKUhBClKQghSkIAUpSEH61UiXKFZA7ysbxR7qwhYOG0ypz+qCPYjKzrkXBnwzxvxlyzN7xlxue67DeKywQWJvj5xaFqEkViL3tpgS7s0YsVobWvK7SZ36PnOtiiH7NnY3NFiWOhUiqBgPRpV0GpqN5lGjpnojLuYOW+DVqDuaekHU3nDYWIM20Rh7rqjdM3syFVJj6DmWusbi2Qz82ifPZS3yNnRuyUB4AZ0wMpjz2j7pO0HNJIPRtHZKzj84o5moMcoF+fSevO9138q7BJuRffJh8IlcjEby1p3dLz3dN3t8FNi++Dn1njd7ln33enVqm3SxSIvY1okxkqbfjWaL2i4Lrlv7Bomn8MSwbO47dH5su05UVRs63uj2JyOdLxJdDIGIuR+1l7O4d0Pv6OLqF1vKckcDaaXkhFj2zHdY3WX3g7tJxfjhJWOV7Dca8Y+NXidlLSpopHv1l+HQIXOMY8NiYxo6gviBN7YdZlQXNdcPxrFZb1SNO+qEzDjuHNWPVsrhUdUYyVAVKUTRp9vt9YzHqpJqsxTVVimq+6WotktR7ZSielCK6mEpqkelqJqNcmTL8S6zHPcyy/EvsxwHM8vxMLMcFzPL8TGzHCczy/GyZjle1ixpDSvHy5rleFkzh5cRHs5ma9/+nWGHEDBLQ1RxbvVEFWdWT1RxXvVEFWOXnqhi5NITVYxbeqKKUUtPVDFm6Ymqbgw0VUvxKdVtgaZqKV6luinQVC3Fr1S3BJqqpXiW6oZAU7UU31LdDmiqlrNeleJbqnsBTdWsvnVvuyLvNmAob1BXVZxWTVXFadVUVZxWTVXFkKWpqhiyNFUVQ5amqmLI0lRVDFmaqqr7AV3ZcrxLdUegK1uOf6nuCXRly/Ew1V2Brmw5Pqa6L9CVLcfLVHcGurIlrWHleJnq5kBXVsvLPqscOCRHiuSEuOx+eZ4RH2NU+N2kGh9IbDy5WJ5LcibeeqFr8Uq7USWm2a6Slvyt2VY7/XiIMJ6OWy2rSwWbeMH89MHmi3O9p6lQOPyMBC4CiwWXoTxmU24oOebrHO8Y5WHAFhjypDB5BHmPc+NzpPWuBiywGU9wo56SB+I7nqjLw62NXfLXxr2ZlNdju/M9hwrbcyMogwvm14Zs7AXMULOk39iEudb6gBbXKp3IClrSEuRhmCl/JKelGw+Sl7L16wkTPVfI+Ym6GIfuKCat7JK/FI5LJSF7an210TdkscekIqY2j+xatlPrSJaVRvVo/np0NK38D1hXbYmfnA0mute+x20peBZdVhnNskiZV6gC714PaYlluxaTjlszq5qtl+Uma8OxzRxpb5VkThd+Mgm80GcW+fFH8u/k+kP9ekp5Ek+kg+2u1s5frY0mpE4nk77so+4wdyKm5A1pkv8S49RxDHK8fgd37BGr1Mzdq8bn3Y3+9mIkXkAqN9FQGj+Rm6ibxFSTfuW1/5wQU/8BySLNONG7uvlcv2VReDs5WUxeNsVYNXnsN7pDXZZhwOhtlsaPmm1075fzlYzuRJq1NIbEUuKFsX69eBWIWfHLQPwqnsnP2aZy+aD9kE8rWZ9F9EiPF88zuyc5zrHKKOvyzqy9cBF4t0ytn8W9WXvyfDqyxVytq+TmzKOKu1h2lVVlGUjWw0oW99AOPrIs3Xk98JAaMXXVdNxNnfWxGq+qSvc/btpTyLK3Rz78/pH8efH7JRlcXH789f0v5LeLX37tkvPeZU9NoB9FbfZA5RaNCI9wL9pIu+EssoMRibeInFA+ijYvtjtRUFzOvdRZWZlplQzVg0vARBi4xKcBZ33Ho6JCZcjfjR7lyrVhfE1pMjdv0Va6TYawSfjxG7yy+ewANnkvUx6ofpM3SIEDHOAABzjAAQ5wgAMc4ABn63FevuAiiQJmgQY0oAENaEADGtCABjSgAQ1ovkzz4pVASSNf8QMOcIADHOAABzjAAQ5wgAMc4HzDRIkf2cxnARVhwEilv4tUid9VqsQ/qLS4cxZ/nM6GNnMFkY9M5j1kVhjNf40cNPrbkQKxvQUpENtfLQVi/B9Ps6ZgKkinVZDOfkE67YJ0OgXpHBSkc1iQzlFBOmu5BXIJFWXRZlEmbRZl02ZRRm0WZdVmUWZtFmXXZlGGbRZl2c2iLLtZWKwuyrKbRVl2U8uy1VP2rUllT9KXQyZ1hrIn4sshk+r32ZPt5ZBJ9fnsCfVyyKT6e46keXl0CrLj9GUsRyq8PDoFmXL6GpYjwV0enYKsOX0By5G2Lk8cLMie01evHMno8ugUZM/pS1f2FHNrMjmSyuXRSZ2eHInj8uikunuO5HB5dFLdPUcCuDw6qe6eJ8lbLqGiLDp9BcuTui2XUFFGnb6I5UnIlkuoKLtOX8fypFnLFRmLsuz0pSxP8rRcQkVZdvpqhpRoW5ESDdWoRjWqUY1qVKMa1ahGNapRjWpUoxrV31P1vO7dsSCwLfaOyn+oMusNpMRfGQlS4j8VpMTXKkiJj5T4GgUp8Z8XpMR/XpASX7MgJT5S4r9akBIfOMABDnCAAxzgAAc4wAEOcICzDQklQQMa0IAGNKABDWhAAxrQgGZ7aP5vElkCBzjAAQ5wgAMc4AAHOMABTvb+vkFK/DN7xlxue67DOEdC/O8rIb4X3JLeeGyPbOaO5k9p8L9uAvzk7mc1q39e/r74fFJPfnn6GHrWXH5Oxcz5+V9/A84Ga34="
               },
               {
                  "name" : "annual_peak_electric_demand",
                  "units" : "kW",
                  "value" : 97.494140000000002
               },
               {
                  "name" : "first_year_capital_cost",
                  "units" : "$",
                  "value" : 0
               },
               {
                  "name" : "annual_utility_cost",
                  "units" : "$",
                  "value" : 0
               },
               {
                  "name" : "total_lifecycle_cost",
                  "units" : "$",
                  "value" : 0
               }
            ],
            "step_warnings" : []
         }
      }
   ],
   "updated_at" : "20170710T192553Z",
   "weather_file" : "USA_CO_Denver.Intl.AP.725650_TMY3.epw"
}
