{
   "completed_at" : "20170710T182837Z",
   "completed_status" : "Success",
   "created_at" : "2017-07-10 18:26:42 +0000",
   "current_step" : 5,
   "description" : "",
   "eplusout_err" : "Program Version,EnergyPlus, Version 8.7.0-78a111df4a, YMD=2017.07.10 18:27,IDD_Version 8.7.0\n   ************* IDF Context for following error/warning message:\n   ************* Note -- lines truncated at 300 characters, if necessary...\n   *************      5 Building,\n   ************* indicated Name=NECB 2011-SmallOffice-NECB HDD Method-CAN_PQ_Roberval.717280_CWEC.epw created: 2017-07-10 18:26:48 +0000\n   ************* Only last 1 lines before error line shown.....\n   *************      6   NECB 2011-SmallOffice-NECB HDD Method-CAN_PQ_Roberval.717280_CWEC.epw created: 2017-07-10 18:26:48 +0000, !- Name\n   ** Warning ** IP: IDF line~6 Alpha Argument length exceeds maximum, will be truncated=  NECB 2011-SmallOffice-NECB HDD Method-CAN_PQ_Roberval.717280_CWEC.epw created: 2017-07-10 18:26:48 +000\n   **   ~~~   ** Will be processed as Alpha=NECB 2011-SMALLOFFICE-NECB HDD METHOD-CAN_PQ_ROBERVAL.717280_CWEC.EPW CREATED: 2017-07-10 18:26:48 +0000\n   ************* Beginning Zone Sizing Calculations\n   ** Warning ** ProcessScheduleInput: Schedule:Day:Interval=\"ECONOMIZER MAX OA FRACTION 100 PCT DEFAULT\", Blank Schedule Type Limits Name input -- will not be validated.\n   ** Warning ** ProcessScheduleInput: Schedule:Day:Interval=\"SCHEDULE DAY 1\", Blank Schedule Type Limits Name input -- will not be validated.\n   ** Warning ** ProcessScheduleInput: Schedule:Day:Interval=\"SCHEDULE DAY 10\", Blank Schedule Type Limits Name input -- will not be validated.\n   ** Warning ** ProcessScheduleInput: Schedule:Day:Interval=\"SCHEDULE DAY 11\", Blank Schedule Type Limits Name input -- will not be validated.\n   ** Warning ** ProcessScheduleInput: Schedule:Day:Interval=\"SCHEDULE DAY 12\", Blank Schedule Type Limits Name input -- will not be validated.\n   ** Warning ** ProcessScheduleInput: Schedule:Day:Interval=\"SCHEDULE DAY 13\", Blank Schedule Type Limits Name input -- will not be validated.\n   ** Warning ** ProcessScheduleInput: Schedule:Day:Interval=\"SCHEDULE DAY 14\", Blank Schedule Type Limits Name input -- will not be validated.\n   ** Warning ** ProcessScheduleInput: Schedule:Day:Interval=\"SCHEDULE DAY 15\", Blank Schedule Type Limits Name input -- will not be validated.\n   ** Warning ** ProcessScheduleInput: Schedule:Day:Interval=\"SCHEDULE DAY 16\", Blank Schedule Type Limits Name input -- will not be validated.\n   ** Warning ** ProcessScheduleInput: Schedule:Day:Interval=\"SCHEDULE DAY 17\", Blank Schedule Type Limits Name input -- will not be validated.\n   ** Warning ** ProcessScheduleInput: Schedule:Day:Interval=\"SCHEDULE DAY 18\", Blank Schedule Type Limits Name input -- will not be validated.\n   ** Warning ** ProcessScheduleInput: Schedule:Day:Interval=\"SCHEDULE DAY 19\", Blank Schedule Type Limits Name input -- will not be validated.\n   ** Warning ** ProcessScheduleInput: Schedule:Day:Interval=\"SCHEDULE DAY 2\", Blank Schedule Type Limits Name input -- will not be validated.\n   ** Warning ** ProcessScheduleInput: Schedule:Day:Interval=\"SCHEDULE DAY 5\", Blank Schedule Type Limits Name input -- will not be validated.\n   ** Warning ** ProcessScheduleInput: Schedule:Day:Interval=\"SCHEDULE DAY 6\", Blank Schedule Type Limits Name input -- will not be validated.\n   ** Warning ** ProcessScheduleInput: Schedule:Day:Interval=\"SCHEDULE DAY 7\", Blank Schedule Type Limits Name input -- will not be validated.\n   ** Warning ** ProcessScheduleInput: Schedule:Day:Interval=\"SCHEDULE DAY 8\", Blank Schedule Type Limits Name input -- will not be validated.\n   ** Warning ** ProcessScheduleInput: Schedule:Day:Interval=\"SCHEDULE DAY 9\", Blank Schedule Type Limits Name input -- will not be validated.\n   ** Warning ** ProcessScheduleInput: Schedule:Year=\"ECONOMIZER MAX OA FRACTION 100 PCT\", Blank Schedule Type Limits Name input -- will not be validated.\n   ** Warning ** ProcessScheduleInput: Schedule:Year=\"SCHEDULE RULESET 10\", Blank Schedule Type Limits Name input -- will not be validated.\n   ** Warning ** ProcessScheduleInput: Schedule:Year=\"SCHEDULE RULESET 11\", Blank Schedule Type Limits Name input -- will not be validated.\n   ** Warning ** ProcessScheduleInput: Schedule:Year=\"SCHEDULE RULESET 12\", Blank Schedule Type Limits Name input -- will not be validated.\n   ** Warning ** ProcessScheduleInput: Schedule:Year=\"SCHEDULE RULESET 13\", Blank Schedule Type Limits Name input -- will not be validated.\n   ** Warning ** ProcessScheduleInput: Schedule:Year=\"SCHEDULE RULESET 14\", Blank Schedule Type Limits Name input -- will not be validated.\n   ** Warning ** ProcessScheduleInput: Schedule:Year=\"SCHEDULE RULESET 15\", Blank Schedule Type Limits Name input -- will not be validated.\n   ** Warning ** ProcessScheduleInput: Schedule:Year=\"SCHEDULE RULESET 16\", Blank Schedule Type Limits Name input -- will not be validated.\n   ** Warning ** ProcessScheduleInput: Schedule:Year=\"SCHEDULE RULESET 17\", Blank Schedule Type Limits Name input -- will not be validated.\n   ** Warning ** ProcessScheduleInput: Schedule:Year=\"SCHEDULE RULESET 3\", Blank Schedule Type Limits Name input -- will not be validated.\n   ** Warning ** ProcessScheduleInput: Schedule:Year=\"SCHEDULE RULESET 4\", Blank Schedule Type Limits Name input -- will not be validated.\n   ** Warning ** ProcessScheduleInput: Schedule:Year=\"SCHEDULE RULESET 5\", Blank Schedule Type Limits Name input -- will not be validated.\n   ** Warning ** ProcessScheduleInput: Schedule:Year=\"SCHEDULE RULESET 6\", Blank Schedule Type Limits Name input -- will not be validated.\n   ** Warning ** ProcessScheduleInput: Schedule:Year=\"SCHEDULE RULESET 7\", Blank Schedule Type Limits Name input -- will not be validated.\n   ** Warning ** ProcessScheduleInput: Schedule:Year=\"SCHEDULE RULESET 8\", Blank Schedule Type Limits Name input -- will not be validated.\n   ** Warning ** ProcessScheduleInput: Schedule:Year=\"SCHEDULE RULESET 9\", Blank Schedule Type Limits Name input -- will not be validated.\n   ** Warning ** ProcessScheduleInput: Schedule:Constant=\"ALWAYS OFF DISCRETE\", Blank Schedule Type Limits Name input -- will not be validated.\n   ** Warning ** ProcessScheduleInput: Schedule:Constant=\"ALWAYS ON CONTINUOUS\", Blank Schedule Type Limits Name input -- will not be validated.\n   ** Warning ** CheckUsedConstructions: There are 22 nominally unused constructions in input.\n   **   ~~~   ** For explicit details on each unused construction, use Output:Diagnostics,DisplayExtraWarnings;\n   ************* Beginning System Sizing Calculations\n   ************* Beginning Plant Sizing Calculations\n   ** Warning ** GetDXCoils: Coil:Cooling:DX:SingleSpeed=\"COIL COOLING DX SINGLE SPEED 5 16KBTU/HR 14.0SEER\", invalid\n   **   ~~~   ** ...Part Load Fraction Correlation Curve Name = DXCOOL-NECB2011-REF-COOLPLFFPLR 4 has out of range value.\n   **   ~~~   ** ...Curve maximum must be <= 1.0, curve max at PLR = 0.99 is 1.015\n   **   ~~~   ** ...Setting curve maximum to 1.0 and simulation continues.\n   ** Warning ** GetDXCoils: Coil:Cooling:DX:SingleSpeed=\"COIL COOLING DX SINGLE SPEED 4 18KBTU/HR 14.0SEER\", invalid\n   **   ~~~   ** ...Part Load Fraction Correlation Curve Name = DXCOOL-NECB2011-REF-COOLPLFFPLR 3 has out of range value.\n   **   ~~~   ** ...Curve maximum must be <= 1.0, curve max at PLR = 0.99 is 1.015\n   **   ~~~   ** ...Setting curve maximum to 1.0 and simulation continues.\n   ** Warning ** GetDXCoils: Coil:Cooling:DX:SingleSpeed=\"COIL COOLING DX SINGLE SPEED 2 16KBTU/HR 14.0SEER\", invalid\n   **   ~~~   ** ...Part Load Fraction Correlation Curve Name = DXCOOL-NECB2011-REF-COOLPLFFPLR 1 has out of range value.\n   **   ~~~   ** ...Curve maximum must be <= 1.0, curve max at PLR = 0.99 is 1.015\n   **   ~~~   ** ...Setting curve maximum to 1.0 and simulation continues.\n   ** Warning ** GetDXCoils: Coil:Cooling:DX:SingleSpeed=\"COIL COOLING DX SINGLE SPEED 1 15KBTU/HR 14.0SEER\", invalid\n   **   ~~~   ** ...Part Load Fraction Correlation Curve Name = DXCOOL-NECB2011-REF-COOLPLFFPLR has out of range value.\n   **   ~~~   ** ...Curve maximum must be <= 1.0, curve max at PLR = 0.99 is 1.015\n   **   ~~~   ** ...Setting curve maximum to 1.0 and simulation continues.\n   ** Warning ** GetDXCoils: Coil:Cooling:DX:SingleSpeed=\"COIL COOLING DX SINGLE SPEED 3 18KBTU/HR 14.0SEER\", invalid\n   **   ~~~   ** ...Part Load Fraction Correlation Curve Name = DXCOOL-NECB2011-REF-COOLPLFFPLR 2 has out of range value.\n   **   ~~~   ** ...Curve maximum must be <= 1.0, curve max at PLR = 0.99 is 1.015\n   **   ~~~   ** ...Setting curve maximum to 1.0 and simulation continues.\n   ** Warning ** The Standard Ratings is calculated for Coil:Cooling:DX:SingleSpeed = COIL COOLING DX SINGLE SPEED 5 16KBTU/HR 14.0SEER but not at the AHRI test condition due to curve out of bound.\n   **   ~~~   **  Review the Standard Ratings calculations in the Engineering Reference for this coil type. Also, use Output:Diagnostics, DisplayExtraWarnings for further guidance.\n   ** Warning ** The Standard Ratings is calculated for Coil:Cooling:DX:SingleSpeed = COIL COOLING DX SINGLE SPEED 4 18KBTU/HR 14.0SEER but not at the AHRI test condition due to curve out of bound.\n   **   ~~~   **  Review the Standard Ratings calculations in the Engineering Reference for this coil type. Also, use Output:Diagnostics, DisplayExtraWarnings for further guidance.\n   ** Warning ** The Standard Ratings is calculated for Coil:Cooling:DX:SingleSpeed = COIL COOLING DX SINGLE SPEED 2 16KBTU/HR 14.0SEER but not at the AHRI test condition due to curve out of bound.\n   **   ~~~   **  Review the Standard Ratings calculations in the Engineering Reference for this coil type. Also, use Output:Diagnostics, DisplayExtraWarnings for further guidance.\n   ** Warning ** The Standard Ratings is calculated for Coil:Cooling:DX:SingleSpeed = COIL COOLING DX SINGLE SPEED 1 15KBTU/HR 14.0SEER but not at the AHRI test condition due to curve out of bound.\n   **   ~~~   **  Review the Standard Ratings calculations in the Engineering Reference for this coil type. Also, use Output:Diagnostics, DisplayExtraWarnings for further guidance.\n   ** Warning ** The Standard Ratings is calculated for Coil:Cooling:DX:SingleSpeed = COIL COOLING DX SINGLE SPEED 3 18KBTU/HR 14.0SEER but not at the AHRI test condition due to curve out of bound.\n   **   ~~~   **  Review the Standard Ratings calculations in the Engineering Reference for this coil type. Also, use Output:Diagnostics, DisplayExtraWarnings for further guidance.\n   ** Warning ** Check input. Pump nominal power or motor efficiency is set to 0, for pump=SERVICE WATER LOOP PUMP\n   ** Warning ** Output:Meter: invalid Name=\"GAS:FACILITY\" - not found.\n   ** Warning ** Output:Meter: invalid Name=\"DISTRICTCOOLING:FACILITY\" - not found.\n   ** Warning ** Output:Meter: invalid Name=\"DISTRICTHEATING:FACILITY\" - not found.\n   ** Warning ** Output:Meter:MeterFileOnly: invalid Name=\"GAS:FACILITY\" - not found.\n   ** Warning ** Output:Meter:MeterFileOnly: invalid Name=\"GAS:FACILITY\" - not found.\n   ** Warning ** Output:Meter:MeterFileOnly requested for \"Electricity:Facility\" (TimeStep), already on \"Output:Meter\". Will report to both eplusout.eso and eplusout.mtr\n   ************* Testing Individual Branch Integrity\n   ************* All Branches passed integrity testing\n   ************* Testing Individual Supply Air Path Integrity\n   ************* All Supply Air Paths passed integrity testing\n   ************* Testing Individual Return Air Path Integrity\n   ************* All Return Air Paths passed integrity testing\n   ************* No node connection errors were found.\n   ************* Beginning Simulation\n   ** Warning ** GetInputEconomicsTariff: UtilityCost:Tariff=\"GASMETRO\" missing meter\n   **   ~~~   ** Meter referenced is not present due to a lack of equipment that uses that energy source/meter:\"GAS:FACILITY\".\n   ** Warning ** CalcDoe2DXCoil: Coil:Cooling:DX:SingleSpeed \"COIL COOLING DX SINGLE SPEED 4 18KBTU/HR 14.0SEER\" - Air-cooled condenser inlet dry-bulb temperature below 0 C. Outdoor dry-bulb temperature = -10.48\n   **   ~~~   **  ... Occurrence info = RUN PERIOD 1, 01/02 06:03 - 06:05\n   **   ~~~   ** ... Operation at low ambient temperatures may require special performance curves.\n   ** Warning ** CalcDoe2DXCoil: Coil:Cooling:DX:SingleSpeed \"COIL COOLING DX SINGLE SPEED 4 18KBTU/HR 14.0SEER\" - Full load outlet air dry-bulb temperature < 2C. This indicates the possibility of coil frost/freeze. Outlet temperature = 1.43 C.\n   **   ~~~   **  ...Occurrence info = RUN PERIOD 1, 01/02 06:03 - 06:05\n   **   ~~~   ** ... Possible reasons for low outlet air dry-bulb temperatures are: This DX coil\n   **   ~~~   **    1) may have a low inlet air dry-bulb temperature. Inlet air temperature = 15.131 C.\n   **   ~~~   **    2) may have a low air flow rate per watt of cooling capacity. Check inputs.\n   **   ~~~   **    3) is used as part of a HX assisted cooling coil which uses a high sensible effectiveness. Check inputs.\n   ** Warning ** CalcDoe2DXCoil: Coil:Cooling:DX:SingleSpeed \"COIL COOLING DX SINGLE SPEED 2 16KBTU/HR 14.0SEER\" - Air-cooled condenser inlet dry-bulb temperature below 0 C. Outdoor dry-bulb temperature = -10.48\n   **   ~~~   **  ... Occurrence info = RUN PERIOD 1, 01/02 06:03 - 06:05\n   **   ~~~   ** ... Operation at low ambient temperatures may require special performance curves.\n   ** Warning ** CalcDoe2DXCoil: Coil:Cooling:DX:SingleSpeed \"COIL COOLING DX SINGLE SPEED 1 15KBTU/HR 14.0SEER\" - Air-cooled condenser inlet dry-bulb temperature below 0 C. Outdoor dry-bulb temperature = -10.48\n   **   ~~~   **  ... Occurrence info = RUN PERIOD 1, 01/02 06:03 - 06:05\n   **   ~~~   ** ... Operation at low ambient temperatures may require special performance curves.\n   ** Warning ** CalcDoe2DXCoil: Coil:Cooling:DX:SingleSpeed \"COIL COOLING DX SINGLE SPEED 1 15KBTU/HR 14.0SEER\" - Full load outlet air dry-bulb temperature < 2C. This indicates the possibility of coil frost/freeze. Outlet temperature = -0.14 C.\n   **   ~~~   **  ...Occurrence info = RUN PERIOD 1, 01/02 06:03 - 06:05\n   **   ~~~   ** ... Possible reasons for low outlet air dry-bulb temperatures are: This DX coil\n   **   ~~~   **    1) may have a low inlet air dry-bulb temperature. Inlet air temperature = 14.024 C.\n   **   ~~~   **    2) may have a low air flow rate per watt of cooling capacity. Check inputs.\n   **   ~~~   **    3) is used as part of a HX assisted cooling coil which uses a high sensible effectiveness. Check inputs.\n   ** Warning ** CalcDoe2DXCoil: Coil:Cooling:DX:SingleSpeed \"COIL COOLING DX SINGLE SPEED 3 18KBTU/HR 14.0SEER\" - Air-cooled condenser inlet dry-bulb temperature below 0 C. Outdoor dry-bulb temperature = -10.48\n   **   ~~~   **  ... Occurrence info = RUN PERIOD 1, 01/02 06:03 - 06:05\n   **   ~~~   ** ... Operation at low ambient temperatures may require special performance curves.\n   ** Warning ** CalcDoe2DXCoil: Coil:Cooling:DX:SingleSpeed \"COIL COOLING DX SINGLE SPEED 5 16KBTU/HR 14.0SEER\" - Air-cooled condenser inlet dry-bulb temperature below 0 C. Outdoor dry-bulb temperature = -11.50\n   **   ~~~   **  ... Occurrence info = RUN PERIOD 1, 01/02 21:15 - 21:18\n   **   ~~~   ** ... Operation at low ambient temperatures may require special performance curves.\n   ** Warning ** CalcDoe2DXCoil: Coil:Cooling:DX:SingleSpeed \"COIL COOLING DX SINGLE SPEED 5 16KBTU/HR 14.0SEER\" - Full load outlet air dry-bulb temperature < 2C. This indicates the possibility of coil frost/freeze. Outlet temperature = -1.75 C.\n   **   ~~~   **  ...Occurrence info = RUN PERIOD 1, 01/02 21:15 - 21:18\n   **   ~~~   ** ... Possible reasons for low outlet air dry-bulb temperatures are: This DX coil\n   **   ~~~   **    1) may have a low inlet air dry-bulb temperature. Inlet air temperature = 12.734 C.\n   **   ~~~   **    2) may have a low air flow rate per watt of cooling capacity. Check inputs.\n   **   ~~~   **    3) is used as part of a HX assisted cooling coil which uses a high sensible effectiveness. Check inputs.\n   ** Warning ** CalcDoe2DXCoil: Coil:Cooling:DX:SingleSpeed \"COIL COOLING DX SINGLE SPEED 2 16KBTU/HR 14.0SEER\" - Full load outlet air dry-bulb temperature < 2C. This indicates the possibility of coil frost/freeze. Outlet temperature = 1.66 C.\n   **   ~~~   **  ...Occurrence info = RUN PERIOD 1, 01/03 21:30 - 21:38\n   **   ~~~   ** ... Possible reasons for low outlet air dry-bulb temperatures are: This DX coil\n   **   ~~~   **    1) may have a low inlet air dry-bulb temperature. Inlet air temperature = 14.529 C.\n   **   ~~~   **    2) may have a low air flow rate per watt of cooling capacity. Check inputs.\n   **   ~~~   **    3) is used as part of a HX assisted cooling coil which uses a high sensible effectiveness. Check inputs.\n   ** Warning ** CalcDoe2DXCoil: Coil:Cooling:DX:SingleSpeed \"COIL COOLING DX SINGLE SPEED 3 18KBTU/HR 14.0SEER\" - Full load outlet air dry-bulb temperature < 2C. This indicates the possibility of coil frost/freeze. Outlet temperature = 1.90 C.\n   **   ~~~   **  ...Occurrence info = RUN PERIOD 1, 01/06 21:30 - 21:35\n   **   ~~~   ** ... Possible reasons for low outlet air dry-bulb temperatures are: This DX coil\n   **   ~~~   **    1) may have a low inlet air dry-bulb temperature. Inlet air temperature = 14.769 C.\n   **   ~~~   **    2) may have a low air flow rate per watt of cooling capacity. Check inputs.\n   **   ~~~   **    3) is used as part of a HX assisted cooling coil which uses a high sensible effectiveness. Check inputs.\n   ************* Simulation Error Summary *************\n   ************* There are 9 unused schedules in input.\n   ************* There are 9 unused week schedules in input.\n   ************* There are 12 unused day schedules in input.\n   ************* Use Output:Diagnostics,DisplayUnusedSchedules; to see them.\n   *************\n   ************* ===== Recurring Error Summary =====\n   ************* The following recurring error messages occurred.\n   *************\n   *************  ** Warning ** Plant loop exceeding upper temperature limit, PlantLoop=\"MAIN SERVICE WATER LOOP\"\n   *************  **   ~~~   **   This error occurred 42327 total times;\n   *************  **   ~~~   **   during Warmup 1119 times;\n   *************  **   ~~~   **   during Sizing 0 times.\n   *************  **   ~~~   **   Max=82.222222\n   *************\n   *************  ** Warning ** CalcDoe2DXCoil: Coil:Cooling:DX:SingleSpeed=\"COIL COOLING DX SINGLE SPEED 4 18KBTU/HR 14.0SEER\" - Low condenser dry-bulb temperature error continues...\n   *************  **   ~~~   **   This error occurred 964 total times;\n   *************  **   ~~~   **   during Warmup 0 times;\n   *************  **   ~~~   **   during Sizing 0 times.\n   *************  **   ~~~   **   Max=-7.500000E-002 [C]  Min=-29.075 [C]\n   *************\n   *************  ** Warning ** CalcDoe2DXCoil: Coil:Cooling:DX:SingleSpeed=\"COIL COOLING DX SINGLE SPEED 4 18KBTU/HR 14.0SEER\" - Full load outlet temperature indicates a possibility of frost/freeze error continues. Outlet air temperature statistics follow:\n   *************  **   ~~~   **   This error occurred 314 total times;\n   *************  **   ~~~   **   during Warmup 0 times;\n   *************  **   ~~~   **   during Sizing 0 times.\n   *************  **   ~~~   **   Max=1.999035  Min=-1.829275\n   *************\n   *************  ** Warning ** CalcDoe2DXCoil: Coil:Cooling:DX:SingleSpeed=\"COIL COOLING DX SINGLE SPEED 2 16KBTU/HR 14.0SEER\" - Low condenser dry-bulb temperature error continues...\n   *************  **   ~~~   **   This error occurred 596 total times;\n   *************  **   ~~~   **   during Warmup 0 times;\n   *************  **   ~~~   **   during Sizing 0 times.\n   *************  **   ~~~   **   Max=-7.500000E-002 [C]  Min=-31.3 [C]\n   *************\n   *************  ** Warning ** CalcDoe2DXCoil: Coil:Cooling:DX:SingleSpeed=\"COIL COOLING DX SINGLE SPEED 1 15KBTU/HR 14.0SEER\" - Low condenser dry-bulb temperature error continues...\n   *************  **   ~~~   **   This error occurred 397 total times;\n   *************  **   ~~~   **   during Warmup 0 times;\n   *************  **   ~~~   **   during Sizing 0 times.\n   *************  **   ~~~   **   Max=-7.500000E-002 [C]  Min=-21.85 [C]\n   *************\n   *************  ** Warning ** CalcDoe2DXCoil: Coil:Cooling:DX:SingleSpeed=\"COIL COOLING DX SINGLE SPEED 1 15KBTU/HR 14.0SEER\" - Full load outlet temperature indicates a possibility of frost/freeze error continues. Outlet air temperature statistics follow:\n   *************  **   ~~~   **   This error occurred 322 total times;\n   *************  **   ~~~   **   during Warmup 0 times;\n   *************  **   ~~~   **   during Sizing 0 times.\n   *************  **   ~~~   **   Max=1.964595  Min=-2.367556\n   *************\n   *************  ** Warning ** CalcDoe2DXCoil: Coil:Cooling:DX:SingleSpeed=\"COIL COOLING DX SINGLE SPEED 3 18KBTU/HR 14.0SEER\" - Low condenser dry-bulb temperature error continues...\n   *************  **   ~~~   **   This error occurred 697 total times;\n   *************  **   ~~~   **   during Warmup 0 times;\n   *************  **   ~~~   **   during Sizing 0 times.\n   *************  **   ~~~   **   Max=-5.000000E-002 [C]  Min=-31.3 [C]\n   *************\n   *************  ** Warning ** CalcDoe2DXCoil: Coil:Cooling:DX:SingleSpeed=\"COIL COOLING DX SINGLE SPEED 5 16KBTU/HR 14.0SEER\" - Low condenser dry-bulb temperature error continues...\n   *************  **   ~~~   **   This error occurred 382 total times;\n   *************  **   ~~~   **   during Warmup 0 times;\n   *************  **   ~~~   **   during Sizing 0 times.\n   *************  **   ~~~   **   Max=-7.500000E-002 [C]  Min=-15.925 [C]\n   *************\n   *************  ** Warning ** CalcDoe2DXCoil: Coil:Cooling:DX:SingleSpeed=\"COIL COOLING DX SINGLE SPEED 5 16KBTU/HR 14.0SEER\" - Full load outlet temperature indicates a possibility of frost/freeze error continues. Outlet air temperature statistics follow:\n   *************  **   ~~~   **   This error occurred 433 total times;\n   *************  **   ~~~   **   during Warmup 0 times;\n   *************  **   ~~~   **   during Sizing 0 times.\n   *************  **   ~~~   **   Max=1.985492  Min=-2.746972\n   *************\n   *************  ** Warning ** CalcDoe2DXCoil: Coil:Cooling:DX:SingleSpeed=\"COIL COOLING DX SINGLE SPEED 2 16KBTU/HR 14.0SEER\" - Full load outlet temperature indicates a possibility of frost/freeze error continues. Outlet air temperature statistics follow:\n   *************  **   ~~~   **   This error occurred 10 total times;\n   *************  **   ~~~   **   during Warmup 0 times;\n   *************  **   ~~~   **   during Sizing 0 times.\n   *************  **   ~~~   **   Max=1.99871  Min=0.992296\n   *************\n   *************  ** Warning ** CalcDoe2DXCoil: Coil:Cooling:DX:SingleSpeed=\"COIL COOLING DX SINGLE SPEED 3 18KBTU/HR 14.0SEER\" - Full load outlet temperature indicates a possibility of frost/freeze error continues. Outlet air temperature statistics follow:\n   *************  **   ~~~   **   This error occurred 4 total times;\n   *************  **   ~~~   **   during Warmup 0 times;\n   *************  **   ~~~   **   during Sizing 0 times.\n   *************  **   ~~~   **   Max=1.896987  Min=1.560644\n   *************\n   *************\n   ************* ===== Final Error Summary =====\n   ************* The following error categories occurred.  Consider correcting or noting.\n   ************* Nominally Unused Constructions\n   ************* ..The nominally unused constructions warning is provided to alert you to potential conditions that can cause\n   ************* ..extra time during simulation. Each construction is calculated by the algorithm indicated in the HeatBalanceAlgorithm\n   ************* ..object. You may remove the constructions indicated (when you use the DisplayExtraWarnings option).\n   *************\n   ************* EnergyPlus Warmup Error Summary. During Warmup: 0 Warning; 0 Severe Errors.\n   ************* EnergyPlus Sizing Error Summary. During Sizing: 37 Warning; 0 Severe Errors.\n   ************* EnergyPlus Completed Successfully-- 46502 Warning; 0 Severe Errors; Elapsed Time=00hr 00min 32.14sec\n",
   "file_format_version" : "0.0.1",
   "file_paths" : [ "../weather", "../seeds", "../seed" ],
   "hash" : "89292EDD",
   "measure_paths" : [ "../measures" ],
   "name" : "LHS Autogenerated 159",
   "osa_id" : "4fef0e0f-5396-4c55-a6e1-2cd6803db3ab",
   "osd_id" : "fee754d8-2ab4-4894-bf17-333f5bfd76e9",
   "run_directory" : "./run",
   "seed_file" : "seed.osm",
   "started_at" : "20170710T182645Z",
   "steps" : [
      {
         "arguments" : {
            "__SKIP__" : false,
            "building_type" : "SmallOffice",
            "climate_zone" : "NECB HDD Method",
            "epw_file" : "CAN_PQ_Roberval.717280_CWEC.epw",
            "template" : "NECB 2011"
         },
         "measure_dir_name" : "create_prototype_building",
         "name" : "create_prototype_building",
         "result" : {
            "completed_at" : "20170710T182734Z",
            "measure_class_name" : "CreatePrototypeBuilding",
            "measure_display_name" : "Create Prototype Building",
            "measure_name" : "create_prototype_building",
            "measure_taxonomy" : "Whole Building.Space Types",
            "measure_type" : "ModelMeasure",
            "measure_uid" : "ae90fsd7-a651-467a-bc8d-29d310b0f937",
            "measure_version_id" : "c6ec5c18-5595-459f-a082-09a19c8c869c",
            "measure_version_modified" : "20170519T182315Z",
            "measure_xml_checksum" : "057E8D9D",
            "started_at" : "20170710T182647Z",
            "stderr" : "",
            "stdout" : "[OpenStudio.Measure] <0> OSArgumentVector is deprecated, use OpenStudio::Measure::OSArgumentVector instead.\n[openstudio.EpwFile] <0> Successive data points (1977-Jan-31 to 1961-Feb-01, ending on line 753) are greater than 1 day apart in EPW file '/usr/local/bundle/bundler/gems/openstudio-standards-f448df66933d/openstudio-standards/data/weather/CAN_PQ_Roberval.717280_CWEC.epw'. Data will be treated as typical (TMY)\n[openstudio.setFileExtension] <0> Path p, '/usr/local/bundle/bundler/gems/openstudio-standards-f448df66933d/openstudio-standards/data/weather/CAN_PQ_Roberval.717280_CWEC.ddy', has an unexpected file extension. Was expecting 'idf'.\n[openstudio.model.YearDescription] <1> 'UseWeatherFile' is not yet a supported option for YearDescription\n[openstudio.model.YearDescription] <1> 'UseWeatherFile' is not yet a supported option for YearDescription\n[openstudio.setFileExtension] <0> Path p, '/usr/local/bundle/bundler/gems/openstudio-standards-f448df66933d/openstudio-standards/data/weather/CAN_PQ_Roberval.717280_CWEC.ddy', has an unexpected file extension. Was expecting 'idf'.\n[openstudio.model.YearDescription] <1> 'UseWeatherFile' is not yet a supported option for YearDescription\n[openstudio.model.YearDescription] <1> 'UseWeatherFile' is not yet a supported option for YearDescription\n[openstudio.EpwFile] <0> Successive data points (1977-Jan-31 to 1961-Feb-01, ending on line 753) are greater than 1 day apart in EPW file '/usr/local/bundle/bundler/gems/openstudio-standards-f448df66933d/openstudio-standards/data/weather/CAN_PQ_Roberval.717280_CWEC.epw'. Data will be treated as typical (TMY)\n[openstudio.weather.Model] <0> Could not find ground temperatures; will use generic temperatures, which will skew results.\n[openstudio.setFileExtension] <0> Path p, '/usr/local/bundle/bundler/gems/openstudio-standards-f448df66933d/openstudio-standards/data/weather/CAN_PQ_Roberval.717280_CWEC.ddy', has an unexpected file extension. Was expecting 'idf'.\n[openstudio.model.YearDescription] <1> 'UseWeatherFile' is not yet a supported option for YearDescription\n[openstudio.model.YearDescription] <1> 'UseWeatherFile' is not yet a supported option for YearDescription\n[openstudio.EpwFile] <0> Successive data points (1977-Jan-31 to 1961-Feb-01, ending on line 753) are greater than 1 day apart in EPW file '/usr/local/bundle/bundler/gems/openstudio-standards-f448df66933d/openstudio-standards/data/weather/CAN_PQ_Roberval.717280_CWEC.epw'. Data will be treated as typical (TMY)\n[openstudio.setFileExtension] <0> Path p, '/usr/local/bundle/bundler/gems/openstudio-standards-f448df66933d/openstudio-standards/data/weather/CAN_PQ_Roberval.717280_CWEC.ddy', has an unexpected file extension. Was expecting 'idf'.\n[openstudio.model.YearDescription] <1> 'UseWeatherFile' is not yet a supported option for YearDescription\n[openstudio.model.YearDescription] <1> 'UseWeatherFile' is not yet a supported option for YearDescription\n[openstudio.setFileExtension] <0> Path p, '/usr/local/bundle/bundler/gems/openstudio-standards-f448df66933d/openstudio-standards/data/weather/CAN_PQ_Roberval.717280_CWEC.ddy', has an unexpected file extension. Was expecting 'idf'.\n[openstudio.model.YearDescription] <1> 'UseWeatherFile' is not yet a supported option for YearDescription\n[openstudio.model.YearDescription] <1> 'UseWeatherFile' is not yet a supported option for YearDescription\n[openstudio.EpwFile] <0> Successive data points (1977-Jan-31 to 1961-Feb-01, ending on line 753) are greater than 1 day apart in EPW file '/usr/local/bundle/bundler/gems/openstudio-standards-f448df66933d/openstudio-standards/data/weather/CAN_PQ_Roberval.717280_CWEC.epw'. Data will be treated as typical (TMY)\n[openstudio.setFileExtension] <0> Path p, '/usr/local/bundle/bundler/gems/openstudio-standards-f448df66933d/openstudio-standards/data/weather/CAN_PQ_Roberval.717280_CWEC.ddy', has an unexpected file extension. Was expecting 'idf'.\n[openstudio.model.YearDescription] <1> 'UseWeatherFile' is not yet a supported option for YearDescription\n[openstudio.model.YearDescription] <1> 'UseWeatherFile' is not yet a supported option for YearDescription\n[openstudio.setFileExtension] <0> Path p, '/usr/local/bundle/bundler/gems/openstudio-standards-f448df66933d/openstudio-standards/data/weather/CAN_PQ_Roberval.717280_CWEC.ddy', has an unexpected file extension. Was expecting 'idf'.\n[openstudio.model.YearDescription] <1> 'UseWeatherFile' is not yet a supported option for YearDescription\n[openstudio.model.YearDescription] <1> 'UseWeatherFile' is not yet a supported option for YearDescription\n[utilities.idf.WorkspaceObject] <0> Object of type 'Schedule:Constant' and named 'Always Off Discrete', points to an object named OnOff 1 from field 1, but that object cannot be located.\n[utilities.idf.WorkspaceObject] <0> Object of type 'Schedule:Constant' and named 'Always On Continuous', points to an object named Fractional 1 from field 1, but that object cannot be located.\n[utilities.idf.WorkspaceObject] <0> Object of type 'Schedule:Constant' and named 'Always Off Discrete', points to an object named OnOff 1 from field 1, but that object cannot be located.\n[utilities.idf.WorkspaceObject] <0> Object of type 'Schedule:Constant' and named 'Always On Continuous', points to an object named Fractional 1 from field 1, but that object cannot be located.\n[openstudio.standards.Fan] <0> For Fan Constant Volume 1, there is no greater nominal HP.  Use the efficiency of the largest motor category.\n[openstudio.standards.Fan] <0> For Fan Constant Volume 2, there is no greater nominal HP.  Use the efficiency of the largest motor category.\n[openstudio.standards.Fan] <0> For Fan Constant Volume 3, there is no greater nominal HP.  Use the efficiency of the largest motor category.\n[openstudio.standards.Fan] <0> For Fan Constant Volume 4, there is no greater nominal HP.  Use the efficiency of the largest motor category.\n[openstudio.standards.Fan] <0> For Fan Constant Volume 5, there is no greater nominal HP.  Use the efficiency of the largest motor category.\n[openstudio.EpwFile] <0> Successive data points (1977-Jan-31 to 1961-Feb-01, ending on line 753) are greater than 1 day apart in EPW file '/usr/local/bundle/bundler/gems/openstudio-standards-f448df66933d/openstudio-standards/data/weather/CAN_PQ_Roberval.717280_CWEC.epw'. Data will be treated as typical (TMY)\n[openstudio.setFileExtension] <0> Path p, '/usr/local/bundle/bundler/gems/openstudio-standards-f448df66933d/openstudio-standards/data/weather/CAN_PQ_Roberval.717280_CWEC.ddy', has an unexpected file extension. Was expecting 'idf'.\n[openstudio.model.YearDescription] <1> 'UseWeatherFile' is not yet a supported option for YearDescription\n[openstudio.model.YearDescription] <1> 'UseWeatherFile' is not yet a supported option for YearDescription\n[openstudio.setFileExtension] <0> Path p, '/usr/local/bundle/bundler/gems/openstudio-standards-f448df66933d/openstudio-standards/data/weather/CAN_PQ_Roberval.717280_CWEC.ddy', has an unexpected file extension. Was expecting 'idf'.\n[openstudio.model.YearDescription] <1> 'UseWeatherFile' is not yet a supported option for YearDescription\n[openstudio.model.YearDescription] <1> 'UseWeatherFile' is not yet a supported option for YearDescription\n[openstudio.EpwFile] <0> Successive data points (1977-Jan-31 to 1961-Feb-01, ending on line 753) are greater than 1 day apart in EPW file '/usr/local/bundle/bundler/gems/openstudio-standards-f448df66933d/openstudio-standards/data/weather/CAN_PQ_Roberval.717280_CWEC.epw'. Data will be treated as typical (TMY)\n[openstudio.setFileExtension] <0> Path p, '/usr/local/bundle/bundler/gems/openstudio-standards-f448df66933d/openstudio-standards/data/weather/CAN_PQ_Roberval.717280_CWEC.ddy', has an unexpected file extension. Was expecting 'idf'.\n[openstudio.model.YearDescription] <1> 'UseWeatherFile' is not yet a supported option for YearDescription\n[openstudio.model.YearDescription] <1> 'UseWeatherFile' is not yet a supported option for YearDescription\n[openstudio.setFileExtension] <0> Path p, '/usr/local/bundle/bundler/gems/openstudio-standards-f448df66933d/openstudio-standards/data/weather/CAN_PQ_Roberval.717280_CWEC.ddy', has an unexpected file extension. Was expecting 'idf'.\n[openstudio.model.YearDescription] <1> 'UseWeatherFile' is not yet a supported option for YearDescription\n[openstudio.model.YearDescription] <1> 'UseWeatherFile' is not yet a supported option for YearDescription\n[openstudio.EpwFile] <0> Successive data points (1977-Jan-31 to 1961-Feb-01, ending on line 753) are greater than 1 day apart in EPW file '/usr/local/bundle/bundler/gems/openstudio-standards-f448df66933d/openstudio-standards/data/weather/CAN_PQ_Roberval.717280_CWEC.epw'. Data will be treated as typical (TMY)\n[openstudio.setFileExtension] <0> Path p, '/usr/local/bundle/bundler/gems/openstudio-standards-f448df66933d/openstudio-standards/data/weather/CAN_PQ_Roberval.717280_CWEC.ddy', has an unexpected file extension. Was expecting 'idf'.\n[openstudio.model.YearDescription] <1> 'UseWeatherFile' is not yet a supported option for YearDescription\n[openstudio.model.YearDescription] <1> 'UseWeatherFile' is not yet a supported option for YearDescription\n[openstudio.setFileExtension] <0> Path p, '/usr/local/bundle/bundler/gems/openstudio-standards-f448df66933d/openstudio-standards/data/weather/CAN_PQ_Roberval.717280_CWEC.ddy', has an unexpected file extension. Was expecting 'idf'.\n[openstudio.model.YearDescription] <1> 'UseWeatherFile' is not yet a supported option for YearDescription\n[openstudio.model.YearDescription] <1> 'UseWeatherFile' is not yet a supported option for YearDescription\n[openstudio.EpwFile] <0> Successive data points (1977-Jan-31 to 1961-Feb-01, ending on line 753) are greater than 1 day apart in EPW file '/usr/local/bundle/bundler/gems/openstudio-standards-f448df66933d/openstudio-standards/data/weather/CAN_PQ_Roberval.717280_CWEC.epw'. Data will be treated as typical (TMY)\n[openstudio.setFileExtension] <0> Path p, '/usr/local/bundle/bundler/gems/openstudio-standards-f448df66933d/openstudio-standards/data/weather/CAN_PQ_Roberval.717280_CWEC.ddy', has an unexpected file extension. Was expecting 'idf'.\n[openstudio.model.YearDescription] <1> 'UseWeatherFile' is not yet a supported option for YearDescription\n[openstudio.model.YearDescription] <1> 'UseWeatherFile' is not yet a supported option for YearDescription\n[openstudio.setFileExtension] <0> Path p, '/usr/local/bundle/bundler/gems/openstudio-standards-f448df66933d/openstudio-standards/data/weather/CAN_PQ_Roberval.717280_CWEC.ddy', has an unexpected file extension. Was expecting 'idf'.\n[openstudio.model.YearDescription] <1> 'UseWeatherFile' is not yet a supported option for YearDescription\n[openstudio.model.YearDescription] <1> 'UseWeatherFile' is not yet a supported option for YearDescription\n[openstudio.EpwFile] <0> Successive data points (1977-Jan-31 to 1961-Feb-01, ending on line 753) are greater than 1 day apart in EPW file '/usr/local/bundle/bundler/gems/openstudio-standards-f448df66933d/openstudio-standards/data/weather/CAN_PQ_Roberval.717280_CWEC.epw'. Data will be treated as typical (TMY)\n[openstudio.setFileExtension] <0> Path p, '/usr/local/bundle/bundler/gems/openstudio-standards-f448df66933d/openstudio-standards/data/weather/CAN_PQ_Roberval.717280_CWEC.ddy', has an unexpected file extension. Was expecting 'idf'.\n[openstudio.model.YearDescription] <1> 'UseWeatherFile' is not yet a supported option for YearDescription\n[openstudio.model.YearDescription] <1> 'UseWeatherFile' is not yet a supported option for YearDescription\n[openstudio.setFileExtension] <0> Path p, '/usr/local/bundle/bundler/gems/openstudio-standards-f448df66933d/openstudio-standards/data/weather/CAN_PQ_Roberval.717280_CWEC.ddy', has an unexpected file extension. Was expecting 'idf'.\n[openstudio.model.YearDescription] <1> 'UseWeatherFile' is not yet a supported option for YearDescription\n[openstudio.model.YearDescription] <1> 'UseWeatherFile' is not yet a supported option for YearDescription\n[openstudio.standards.Fan] <0> For Fan Constant Volume 1, there is no greater nominal HP.  Use the efficiency of the largest motor category.\n[openstudio.standards.Fan] <0> For Fan Constant Volume 2, there is no greater nominal HP.  Use the efficiency of the largest motor category.\n[openstudio.standards.Fan] <0> For Fan Constant Volume 3, there is no greater nominal HP.  Use the efficiency of the largest motor category.\n[openstudio.standards.Fan] <0> For Fan Constant Volume 4, there is no greater nominal HP.  Use the efficiency of the largest motor category.\n[openstudio.standards.Fan] <0> For Fan Constant Volume 5, there is no greater nominal HP.  Use the efficiency of the largest motor category.\n",
            "step_errors" : [],
            "step_files" : [],
            "step_info" : [
               "Started adding geometry",
               "Finished adding geometry",
               "Started adding weather file for climate zone: NECB HDD Method.",
               "Template =",
               "Setting Attic to Space Function.- undefined -",
               "Setting Core_ZN to Space Function.Office - enclosed",
               "Setting Perimeter_ZN_1 to Space Function.Office - enclosed",
               "Setting Perimeter_ZN_2 to Space Function.Office - enclosed",
               "Setting Perimeter_ZN_3 to Space Function.Office - enclosed",
               "Setting Perimeter_ZN_4 to Space Function.Office - enclosed",
               "Started applying space types (loads)",
               "Space Function - undefined - had no ventilation specification, one has been created.",
               "Space Function - undefined - had no infiltration objects, one has been created.",
               "Space Function - undefined - set infiltration to 0.0 per ft^2 exterior surface area.",
               "Space Function - undefined - set infiltration schedule to Always On.",
               "Space Function Office - enclosed had no people, one has been created.",
               "Space Function Office - enclosed set occupancy to 4.65 people/1000 ft^2.",
               "Space Function Office - enclosed had no lights, one has been created.",
               "Space Function Office - enclosed set LPD to 1.105536975 W/ft^2.",
               "Space Function Office - enclosed had no electric equipment, one has been created.",
               "Space Function Office - enclosed set electric EPD to 0.696767001 W/ft^2.",
               "Space Function Office - enclosed had no ventilation specification, one has been created.",
               "Space Function Office - enclosed set ventilation per area to 0.085 cfm/ft^2.",
               "Space Function Office - enclosed had no infiltration objects, one has been created.",
               "Space Function Office - enclosed set infiltration to 0.0 per ft^2 exterior surface area.",
               "Space Function Office - enclosed set occupancy schedule to NECB-A-Occupancy.",
               "Space Function Office - enclosed set occupant activity schedule to NECB-Activity.",
               "Space Function Office - enclosed set lighting schedule to NECB-A-Lighting.",
               "Space Function Office - enclosed set electric equipment schedule to NECB-A-Electric-Equipment.",
               "Space Function Office - enclosed set infiltration schedule to Always On.",
               "Space Function Office - enclosed set heating setpoint schedule to NECB-A-Thermostat Setpoint-Heating.",
               "Space Function Office - enclosed set cooling setpoint schedule to NECB-A-Thermostat Setpoint-Cooling.",
               "Finished applying space types (loads)",
               "For NECB 2011, no exterior wall area was found, no infiltration will be added.",
               "Started applying constructions",
               "Adding construction set: NECB 2011-NECB HDD Method-Office--is_residentialNo",
               "Adding construction Typical Insulated Exterior Mass Floor R-15.63.",
               "Adding construction Typical Insulated Exterior Mass Wall R-12.5.",
               "Adding construction Typical Insulated Metal Building Roof R-20.41.",
               "Adding construction Typical Interior Floor.",
               "Adding construction Typical Interior Wall.",
               "Adding construction Typical Interior Ceiling.",
               "Adding construction Typical Insulated Carpeted 6in Slab Floor.",
               "Adding construction U 0.55 SHGC 0.31 Dbl Ref-D Tint 6mm/6mm Air.",
               "Adding construction Typical Insulated Metal Door R-1.43.",
               "Adding construction U 0.35 SHGC 0.35 Dbl LoE (e2-.1) Tint 6mm/13mm Air.",
               "Adding construction Typical Overhead Door R-2.0.",
               "Adding construction U 0.48 SHGC 0.40 Dbl Ref-D Clr 6mm/13mm.",
               "Adding construction Typical Interior Window.",
               "Adding construction Typical Interior Door.",
               "Adding construction Typical Interior Partition.",
               "Finished applying constructions",
               "WWR NonRes = 0%; window = 0 ft2, wall = 0 ft2.",
               "WWR Res = 0%; window = 0 ft2, wall = 0 ft2.",
               "WWR Semiheated = 0%; window = 0 ft2, wall = 0 ft2.",
               "The skylight to roof ratios (SRRs) are: NonRes: 0%, Res: 0%.",
               "Started creating thermal zones",
               "Finished creating thermal zones",
               "Running simulation /mnt/openstudio/analysis_4fef0e0f-5396-4c55-a6e1-2cd6803db3ab/data_point_fee754d8-2ab4-4894-bf17-333f5bfd76e9/run/000_create_prototype_building/output/SmallOffice-NECB 2011-NECB HDD Method-CAN_PQ_Roberval.717280_CWEC.epw/SR0.",
               "Finished run.",
               "Started Adding HVAC",
               "Finished adding HVAC",
               "Started Adding Service Water Heating",
               "Adding service water loop.",
               "Adding water heater.",
               "Template =",
               "Finished adding Service Water Heating",
               "Set sizing factors to 1.3 for heating and 1.3 for cooling.",
               "Running simulation /mnt/openstudio/analysis_4fef0e0f-5396-4c55-a6e1-2cd6803db3ab/data_point_fee754d8-2ab4-4894-bf17-333f5bfd76e9/run/000_create_prototype_building/output/SmallOffice-NECB 2011-NECB HDD Method-CAN_PQ_Roberval.717280_CWEC.epw/SR1.",
               "Finished run.",
               "Started applying multizone vav OA sizing.",
               "Finished applying multizone vav OA sizing.",
               "Started applying prototype HVAC assumptions.",
               "For Fan Constant Volume 1: allowed_hp = 1.01HP; motor eff = 61.5%; total fan eff = 40% based on 533 cfm.",
               "For Fan Constant Volume 2: allowed_hp = 1.01HP; motor eff = 61.5%; total fan eff = 40% based on 599 cfm.",
               "For Fan Constant Volume 3: allowed_hp = 1.01HP; motor eff = 61.5%; total fan eff = 40% based on 683 cfm.",
               "For Fan Constant Volume 4: allowed_hp = 1.01HP; motor eff = 61.5%; total fan eff = 40% based on 663 cfm.",
               "For Fan Constant Volume 5: allowed_hp = 1.01HP; motor eff = 61.5%; total fan eff = 40% based on 573 cfm.",
               "Sp-Core_ZN Sys-3 Flr-1 Sch-A HPlcmt-core ZN NECB System 3 PSZ does not require an economizer because the total cooling capacity of 16034 Btu/hr is less than the minimum capacity of 68243 Btu/hr.",
               "Sp-Perimeter_ZN_2 Sys-3 Flr-1 Sch-A HPlcmt-east ZN NECB System 3 PSZ does not require an economizer because the total cooling capacity of 15970 Btu/hr is less than the minimum capacity of 68243 Btu/hr.",
               "Sp-Perimeter_ZN_1 Sys-3 Flr-1 Sch-A HPlcmt-south ZN NECB System 3 PSZ does not require an economizer because the total cooling capacity of 17669 Btu/hr is less than the minimum capacity of 68243 Btu/hr.",
               "Sp-Perimeter_ZN_4 Sys-3 Flr-1 Sch-A HPlcmt-west ZN NECB System 3 PSZ does not require an economizer because the total cooling capacity of 18220 Btu/hr is less than the minimum capacity of 68243 Btu/hr.",
               "Sp-Perimeter_ZN_3 Sys-3 Flr-1 Sch-A HPlcmt-north ZN NECB System 3 PSZ does not require an economizer because the total cooling capacity of 14564 Btu/hr is less than the minimum capacity of 68243 Btu/hr.",
               "Finished applying prototype HVAC assumptions.",
               "Started applying HVAC efficiency standards.",
               "For Sp-Core_ZN Sys-3 Flr-1 Sch-A HPlcmt-core ZN NECB System 3 PSZ, ERV not required based on 0% OA flow, design supply air flow of 573cfm, and climate zone NECB HDD Method.",
               "For Sp-Core_ZN Sys-3 Flr-1 Sch-A HPlcmt-core ZN NECB System 3 PSZ, ERV not required based on exhaust heat content.",
               "For NECB 2011 NECB HDD Method:  Sp-Core_ZN Sys-3 Flr-1 Sch-A HPlcmt-core ZN NECB System 3 PSZ: DCV is not required for any system.",
               "For Sp-Core_ZN Sys-3 Flr-1 Sch-A HPlcmt-core ZN NECB System 3 PSZ: Unoccupied fan shutoff not required because system fan HP of 0.58 HP is less than the minimum threshold of 0.75 HP.",
               "For Sp-Core_ZN Sys-3 Flr-1 Sch-A HPlcmt-core ZN NECB System 3 PSZ: Setting motorized OA damper schedule to Always On Discrete.",
               "For Sp-Perimeter_ZN_1 Sys-3 Flr-1 Sch-A HPlcmt-south ZN NECB System 3 PSZ, ERV not required based on 0% OA flow, design supply air flow of 663cfm, and climate zone NECB HDD Method.",
               "For Sp-Perimeter_ZN_1 Sys-3 Flr-1 Sch-A HPlcmt-south ZN NECB System 3 PSZ, ERV not required based on exhaust heat content.",
               "For NECB 2011 NECB HDD Method:  Sp-Perimeter_ZN_1 Sys-3 Flr-1 Sch-A HPlcmt-south ZN NECB System 3 PSZ: DCV is not required for any system.",
               "For Sp-Perimeter_ZN_1 Sys-3 Flr-1 Sch-A HPlcmt-south ZN NECB System 3 PSZ: Unoccupied fan shutoff not required because system fan HP of 0.67 HP is less than the minimum threshold of 0.75 HP.",
               "For Sp-Perimeter_ZN_1 Sys-3 Flr-1 Sch-A HPlcmt-south ZN NECB System 3 PSZ: Setting motorized OA damper schedule to Always On Discrete.",
               "For Sp-Perimeter_ZN_2 Sys-3 Flr-1 Sch-A HPlcmt-east ZN NECB System 3 PSZ, ERV not required based on 0% OA flow, design supply air flow of 599cfm, and climate zone NECB HDD Method.",
               "For Sp-Perimeter_ZN_2 Sys-3 Flr-1 Sch-A HPlcmt-east ZN NECB System 3 PSZ, ERV not required based on exhaust heat content.",
               "For NECB 2011 NECB HDD Method:  Sp-Perimeter_ZN_2 Sys-3 Flr-1 Sch-A HPlcmt-east ZN NECB System 3 PSZ: DCV is not required for any system.",
               "For Sp-Perimeter_ZN_2 Sys-3 Flr-1 Sch-A HPlcmt-east ZN NECB System 3 PSZ: Unoccupied fan shutoff not required because system fan HP of 0.61 HP is less than the minimum threshold of 0.75 HP.",
               "For Sp-Perimeter_ZN_2 Sys-3 Flr-1 Sch-A HPlcmt-east ZN NECB System 3 PSZ: Setting motorized OA damper schedule to Always On Discrete.",
               "For Sp-Perimeter_ZN_3 Sys-3 Flr-1 Sch-A HPlcmt-north ZN NECB System 3 PSZ, ERV not required based on 0% OA flow, design supply air flow of 533cfm, and climate zone NECB HDD Method.",
               "For Sp-Perimeter_ZN_3 Sys-3 Flr-1 Sch-A HPlcmt-north ZN NECB System 3 PSZ, ERV not required based on exhaust heat content.",
               "For NECB 2011 NECB HDD Method:  Sp-Perimeter_ZN_3 Sys-3 Flr-1 Sch-A HPlcmt-north ZN NECB System 3 PSZ: DCV is not required for any system.",
               "For Sp-Perimeter_ZN_3 Sys-3 Flr-1 Sch-A HPlcmt-north ZN NECB System 3 PSZ: Unoccupied fan shutoff not required because system fan HP of 0.54 HP is less than the minimum threshold of 0.75 HP.",
               "For Sp-Perimeter_ZN_3 Sys-3 Flr-1 Sch-A HPlcmt-north ZN NECB System 3 PSZ: Setting motorized OA damper schedule to Always On Discrete.",
               "For Sp-Perimeter_ZN_4 Sys-3 Flr-1 Sch-A HPlcmt-west ZN NECB System 3 PSZ, ERV not required based on 0% OA flow, design supply air flow of 683cfm, and climate zone NECB HDD Method.",
               "For Sp-Perimeter_ZN_4 Sys-3 Flr-1 Sch-A HPlcmt-west ZN NECB System 3 PSZ, ERV not required based on exhaust heat content.",
               "For NECB 2011 NECB HDD Method:  Sp-Perimeter_ZN_4 Sys-3 Flr-1 Sch-A HPlcmt-west ZN NECB System 3 PSZ: DCV is not required for any system.",
               "For Sp-Perimeter_ZN_4 Sys-3 Flr-1 Sch-A HPlcmt-west ZN NECB System 3 PSZ: Unoccupied fan shutoff not required because system fan HP of 0.69 HP is less than the minimum threshold of 0.75 HP.",
               "For Sp-Perimeter_ZN_4 Sys-3 Flr-1 Sch-A HPlcmt-west ZN NECB System 3 PSZ: Setting motorized OA damper schedule to Always On Discrete.",
               "For Fan Constant Volume 1: motor nameplate = 0.33214554715106615HP, motor eff = 61.5%.",
               "For Fan Constant Volume 2: motor nameplate = 0.3731784227540503HP, motor eff = 61.5%.",
               "For Fan Constant Volume 3: motor nameplate = 0.42574832622276954HP, motor eff = 61.5%.",
               "For Fan Constant Volume 4: motor nameplate = 0.41286800195862455HP, motor eff = 61.5%.",
               "For Fan Constant Volume 5: motor nameplate = 0.3571359040356534HP, motor eff = 61.5%.",
               "For Service Water Loop Pump: brake hp = 0.0HP, motor nameplate = 0.1HP, motor eff = 70.0%.",
               "For NECB 2011: Coil Cooling DX Single Speed 1: AirCooled Electric Resistance or None Single Package Capacity = 15kBtu/hr; SEER = 14.0",
               "For NECB 2011: Coil Cooling DX Single Speed 2: AirCooled Electric Resistance or None Single Package Capacity = 16kBtu/hr; SEER = 14.0",
               "For NECB 2011: Coil Cooling DX Single Speed 3: AirCooled Electric Resistance or None Single Package Capacity = 18kBtu/hr; SEER = 14.0",
               "For NECB 2011: Coil Cooling DX Single Speed 4: AirCooled Electric Resistance or None Single Package Capacity = 18kBtu/hr; SEER = 14.0",
               "For NECB 2011: Coil Cooling DX Single Speed 5: AirCooled Electric Resistance or None Single Package Capacity = 16kBtu/hr; SEER = 14.0",
               "For NECB 2011: 40.0gal Electricity Water Heater - 40kBtu/hr 1.0 Therm Eff; thermal efficiency = 1.0, skin-loss UA = 3Btu/hr",
               "Finished applying HVAC efficiency standards.",
               "Started adding daylighting controls.",
               "For Attic, daylighting control not applicable because no exterior fenestration is present.",
               "For Core_ZN, daylighting control not applicable because no exterior fenestration is present.",
               "Finished adding daylighting controls.",
               "Total Time = 46sec."
            ],
            "step_result" : "Success",
            "step_values" : [
               {
                  "name" : "building_type",
                  "value" : "SmallOffice"
               },
               {
                  "name" : "template",
                  "value" : "NECB 2011"
               },
               {
                  "name" : "climate_zone",
                  "value" : "NECB HDD Method"
               },
               {
                  "name" : "epw_file",
                  "value" : "CAN_PQ_Roberval.717280_CWEC.epw"
               }
            ],
            "step_warnings" : [
               "[openstudio.EpwFile] Successive data points (1977-Jan-31 to 1961-Feb-01, ending on line 753) are greater than 1 day apart in EPW file '/usr/local/bundle/bundler/gems/openstudio-standards-f448df66933d/openstudio-standards/data/weather/CAN_PQ_Roberval.717280_CWEC.epw'. Data will be treated as typical (TMY)",
               "[openstudio.EpwFile] Successive data points (1977-Jan-31 to 1961-Feb-01, ending on line 753) are greater than 1 day apart in EPW file '/usr/local/bundle/bundler/gems/openstudio-standards-f448df66933d/openstudio-standards/data/weather/CAN_PQ_Roberval.717280_CWEC.epw'. Data will be treated as typical (TMY)",
               "[openstudio.weather.Model] Could not find ground temperatures; will use generic temperatures, which will skew results.",
               "[openstudio.EpwFile] Successive data points (1977-Jan-31 to 1961-Feb-01, ending on line 753) are greater than 1 day apart in EPW file '/usr/local/bundle/bundler/gems/openstudio-standards-f448df66933d/openstudio-standards/data/weather/CAN_PQ_Roberval.717280_CWEC.epw'. Data will be treated as typical (TMY)",
               "[openstudio.EpwFile] Successive data points (1977-Jan-31 to 1961-Feb-01, ending on line 753) are greater than 1 day apart in EPW file '/usr/local/bundle/bundler/gems/openstudio-standards-f448df66933d/openstudio-standards/data/weather/CAN_PQ_Roberval.717280_CWEC.epw'. Data will be treated as typical (TMY)",
               "[openstudio.standards.Fan] For Fan Constant Volume 1, there is no greater nominal HP.  Use the efficiency of the largest motor category.",
               "[openstudio.standards.Fan] For Fan Constant Volume 2, there is no greater nominal HP.  Use the efficiency of the largest motor category.",
               "[openstudio.standards.Fan] For Fan Constant Volume 3, there is no greater nominal HP.  Use the efficiency of the largest motor category.",
               "[openstudio.standards.Fan] For Fan Constant Volume 4, there is no greater nominal HP.  Use the efficiency of the largest motor category.",
               "[openstudio.standards.Fan] For Fan Constant Volume 5, there is no greater nominal HP.  Use the efficiency of the largest motor category.",
               "[openstudio.EpwFile] Successive data points (1977-Jan-31 to 1961-Feb-01, ending on line 753) are greater than 1 day apart in EPW file '/usr/local/bundle/bundler/gems/openstudio-standards-f448df66933d/openstudio-standards/data/weather/CAN_PQ_Roberval.717280_CWEC.epw'. Data will be treated as typical (TMY)",
               "[openstudio.EpwFile] Successive data points (1977-Jan-31 to 1961-Feb-01, ending on line 753) are greater than 1 day apart in EPW file '/usr/local/bundle/bundler/gems/openstudio-standards-f448df66933d/openstudio-standards/data/weather/CAN_PQ_Roberval.717280_CWEC.epw'. Data will be treated as typical (TMY)",
               "[openstudio.EpwFile] Successive data points (1977-Jan-31 to 1961-Feb-01, ending on line 753) are greater than 1 day apart in EPW file '/usr/local/bundle/bundler/gems/openstudio-standards-f448df66933d/openstudio-standards/data/weather/CAN_PQ_Roberval.717280_CWEC.epw'. Data will be treated as typical (TMY)",
               "[openstudio.EpwFile] Successive data points (1977-Jan-31 to 1961-Feb-01, ending on line 753) are greater than 1 day apart in EPW file '/usr/local/bundle/bundler/gems/openstudio-standards-f448df66933d/openstudio-standards/data/weather/CAN_PQ_Roberval.717280_CWEC.epw'. Data will be treated as typical (TMY)",
               "[openstudio.EpwFile] Successive data points (1977-Jan-31 to 1961-Feb-01, ending on line 753) are greater than 1 day apart in EPW file '/usr/local/bundle/bundler/gems/openstudio-standards-f448df66933d/openstudio-standards/data/weather/CAN_PQ_Roberval.717280_CWEC.epw'. Data will be treated as typical (TMY)",
               "[openstudio.standards.Fan] For Fan Constant Volume 1, there is no greater nominal HP.  Use the efficiency of the largest motor category.",
               "[openstudio.standards.Fan] For Fan Constant Volume 2, there is no greater nominal HP.  Use the efficiency of the largest motor category.",
               "[openstudio.standards.Fan] For Fan Constant Volume 3, there is no greater nominal HP.  Use the efficiency of the largest motor category.",
               "[openstudio.standards.Fan] For Fan Constant Volume 4, there is no greater nominal HP.  Use the efficiency of the largest motor category.",
               "[openstudio.standards.Fan] For Fan Constant Volume 5, there is no greater nominal HP.  Use the efficiency of the largest motor category."
            ]
         }
      },
      {
         "arguments" : {
            "__SKIP__" : false
         },
         "measure_dir_name" : "view_model",
         "name" : "view_model",
         "result" : {
            "completed_at" : "20170710T182734Z",
            "measure_class_name" : "ViewModel",
            "measure_display_name" : "ViewModel",
            "measure_name" : "view_model",
            "measure_taxonomy" : "Reporting.QAQC",
            "measure_type" : "ModelMeasure",
            "measure_uid" : "f4669f10-fda5-489d-8e1c-7ca3c2d40378",
            "measure_version_id" : "f4975c5f-7c25-42a2-927b-02d99b4427ef",
            "measure_version_modified" : "20170526T150340Z",
            "measure_xml_checksum" : "1E1F8B97",
            "started_at" : "20170710T182734Z",
            "stderr" : "",
            "stdout" : "[OpenStudio.Measure] <0> OSArgumentVector is deprecated, use OpenStudio::Measure::OSArgumentVector instead.\n",
            "step_errors" : [],
            "step_files" : [
               "/mnt/openstudio/analysis_4fef0e0f-5396-4c55-a6e1-2cd6803db3ab/data_point_fee754d8-2ab4-4894-bf17-333f5bfd76e9/run/001_view_model/report.html",
               "/mnt/openstudio/analysis_4fef0e0f-5396-4c55-a6e1-2cd6803db3ab/data_point_fee754d8-2ab4-4894-bf17-333f5bfd76e9/run/001_view_model/report.json"
            ],
            "step_final_condition" : "Report written to <a href='file:////mnt/openstudio/analysis_4fef0e0f-5396-4c55-a6e1-2cd6803db3ab/data_point_fee754d8-2ab4-4894-bf17-333f5bfd76e9/run/001_view_model/report.html'>report.html</a>.",
            "step_info" : [ "No changes made to the model." ],
            "step_result" : "NA",
            "step_values" : [
               {
                  "name" : "view_model_html_zip",
[...]
VQrzdR0+0Jdxolq2T259asaqclw9YTmn7X3ex3R109eacdeqf8oHZnXmlUvZLvnI5WdTTJ9ffIQl7PJoCBtb4m/1kgsCNXD0e/WPoumW3Qp2tlVlHbT4q7YBdJt6aBufv3OwsFV+29gV7UFfmlgXOqeT+M00oI/5h/bnM2iaZkvUCXxrRvSAiuaDJUeD9uy43j0ol3XPfAyUmOdb+3yms7HySiJZ1M1FN99J/5Rfn7XPb8K0/L5PT3AtpZ777/Ym1+QbjgavdQxumM1GWVX4rkIxH9E68V43BLHq99Ix9FAtbfl1rve+6214+3RmcSJaF/np9L7XlznYcpULePqz/6VzzjuN0g3ncal3rvr990P6l6cnJzML149xUK1vO3Xrqe6aBeJCj/UOfiT4zGu39fXqzy7E53WOhnKTCkeRO2ez7ceUMNT/Yhr+q64ku/rXcrFjZ7O0qt23XuR39Lj+f2sP5LG42Obs+zqb9aNkmZJ/EHZxZl/t26keBoOouzeLlT55dpnVYRYhKqrsphIVqeVOsPDefLRbTGcVycesS2kq5rLcLNn/dQpqqrV9z+tW1PotrMj/vjzrfjvqz9fizevXr/95fefxK+vfvrlVPx89vrMTuBlPmuru1Av0UQWizROMjGZfczzYCCKR7JTEaaDfPESTUYWiotrr3WWKnPYERf2k0uislkyEdMwSdXLcRxm7VBP+Vv5rVz67KL4zOpirl+iLYUtT2Gd8KevsEXMZz7bxd4vcxftr7JjDXCAAxzgAAc4wAEOcIADHOBsPM7jfSE0UaKGoAENaEADGtCABjSgAQ1oQAOaappHOxNpGr3vEHCAAxzgAAc4wAEOcIADHOAApw6O/S5mxb+wzfcoAylIQQpSkIIUpCAFKUhBClKQghSkm0G6dnvNgnS+eSZIQQpSkIIUpCAFKUhBClKQghSkIN0MUqc9jgvq+Q7GoAY1qEENalCDGtSgBjWoQQ1qUIMa1F+ReoE1TMLb9lqxu24WZWP15iqcqm6m7rL2s5/jWZKux7h/fOSP0Uc1SaN4MlZpobBGYmdHvBgORSgKJXEbZVcijT8qMeyvOTK9GXXD6VRvJ9LSsVtbaw5YtG6YZUm7ddfqiP2e40H3Lb1pifVBaXavd13ReNvhZHAVJ62HrU4cNS7jSbZ9q6LRVaY1LuLx0F5jfm9+Pzv9YfvF9qvBYDbNae6fbVXdnec76SCJptm/jd95vjOMbr7cbTzGLJZriWh40hro1D3NzzaMJio5l/stUVyCk9YwSqfj8P44mui9b7YvxvHgw/ctM18uOj8Fkd1P8+P1Vdi5Dm/C+aeVR+pWbMhzMxIni313Jur2zc2o3frnY8aO2NXb2OR/rB01S5u3vPur3JHnuPWZbV+rM+85v2sdy26v0yoM5FvHvW5vr9Ma6JkmP6g09mt96lgJBVxCfS6hXS6hPS6hfS6hAy6hwxUhWVvnaEWnPo/scQmtJvZRfaGAS6jPJbTLJbTHJbTPJbSa2Af1hQ658mg1s/v158fVzA7qC0kuoYBLiG3KDtzm7MfuSXalLVFDBx1zZXPTMV8lNx3zNXLTMZc1Nx1zVXPTMRc1Nx1jTXOTMZY0NxlzRXPUMRY0Rx1jPXPUMZYzRx1jNXPUMRYzRx1jLXPUMZYyRx1jJXPUMRYyx9nQWMccdYxlzFHHWMUcdbim54oa9kjokS2FXf3SxhUOQuYC5ihkvkSOQuZL5ChkrmGOQuYi5ihkrmKOQsYy5qhjrGOOOuZC5ipkrGSuQsZS5ipkrGWuQsZi5ipkrGauQsZy5ipkrGeuQsaC5ipkrGiu86OxpLkKGWuaq5CxqLkKsU3ZFWXtkZL9m5mWP0XO391kiFHxKyVbjIr/GmaLUfHfyWwxKn72ZItR8YsoW4yKH0vZYhw2EOOogRifFXlPQZoY6bKJoS6bGOuyicEumxjtsonhLpsY77KJAS+bGPFBEyM+aKS2NzHiq37r5gtSc8SvfTHGcrk1f3WGIUbFHWGLUXFD2GJU3A+2GBUTMFuMivmXLUbF9MsWo2L2ZYtRMfmyxahabvEFaWKkVy23+II0Mdarllt8QZoY7VXLLb4gTYz3quUWX5AmRnzVcosvSCO1vYkRX7Xc4gtSc8Q7PYNrufSaP6XLHK/iTnmJV3HTvMSruH9e4lVM3l7iVczjXuJVTOle4pmfQvQSzvywopdwFc80+olnfvTRTzzzE5J+4pkfpPQTz/y8pZ945scy/cQzP73pJ575IU8/8czPgvqJZ35k1E91Nz9Z6iee+QFUP/HMz6n6idf08qVq/bkI+N7mzY/y3SxxIibqdvFiSfE+STu9GXWKN0PWvkKyeMErVdkP8WwyTNt7vY6Qcq8j+vpvwZ7dayh3OcbDO2zD4WmYqVGc3L+4i9L5C1IPF8DiLbJc4FUyVMnrmX5fyfpAzXG/yvGbCtNZouYY+pWr8sJ7fpsP3ehGN7rRjW50oxvd6EY3utGNbnSjG93oRje60Y1udKMb3ehGN7rRjW50oxvd6N7g7vtufKOSJBqq30L9YJDs9ojP2xQGuquP9rxRSaTS8vGgVmfxANR0HGdd7eq79hGf9EvPGa1/MijtFsYZ03gcZlE8yaFaaaam2xfqMk5Uy+7JrV/VSE2Gqyc0/6y93+uIvn7ySrsAS/1HafO81gF7Ids9H6nsbJLp65OHuJxNBgVpe0v8tUZiQagejn639lk03aJL0c6uorSbFnfFLpBuSwd18+t3Fg6u2n8Du6ot8EtT5FL3fBqnkRb8Mf/Y5mwWTct8gSqJb92QFljRZKj0eNiWHcejF+267oGXkRrrfGuX13Q+TkZJPJuqofjuO/GP8vO77vlVmJbP7+kBtrXce//F3vyCdMPR6KWO0R2rySi7Es9FIP4jWi/G45Y4Xv1GOo4Gqr0tt9713m+tHW+PziRORPs6P5Xe9+I6D1OmahlXf/avfMZxv0G66TQu9d5dv+9+UPfi5ORkfvHqKRaq5W2/dj3VRbtIVPihzsGfHI9x/b6+XuXZnei01slQZkrxIGr3fL6fgRqe6kdc03fFlXxf71IubvR0ll61696L/JYez+9n/ZE0Hh/bnGVXf7NulDRL4g/KLs78u3UjxdNwEGX3dqHKL9c+qyLEIlRdlcVEsjqt1BkezpOPbovhvDrxiG0hXdVchps966dOUVWtvv9p3ZpCt50d8cefb8V/X/35Wrx59frtL7//JH599dMvp+Lns9dndgIv81lb3YV6iSayWKRxkonJ7GOeBwNRPJKdijAd5IuXaDKyUFxce62zVJnDjriwn1wSlc2SiZiGSapejuMwa4d6yt/Kb+XSZxfFZ1YXc/0SbSlseQrrhD99hX1nPvPsLjaUmRtyf5VtcIADHOAABzjAAQ5wgAMc4ABn43Eeby2hiRI1BA1oQAMa0IAGNKABDWhAAxrQVNM82tNI0+gNi4ADHOAABzjAAQ5wgAMc4AAHOHVw7Pc5K/6Fbb6JGUhBClKQghSkIAUpSEEKUpCCFKQg3QzStRttFqTzXTRBClKQghSkIAUpSEEKUpCCFKQgBelmkDptclxQz3cwBjWoQQ1qUIMa1KAGNahBDWpQgxrUoP6K1AusYRLetteK3XWzKBurN1fhVHUzdZe1n/0cz5J0Pcb94yN/jD6qSRrFk7FKC4U1Ejs74sVwKEJRKInbKLsSafxRiWF/zZHpzagbTqd6O5GWjt3aWnPAonXDLEvarbtWR+z3HA+6b+lNS6wPSrN7veuKxtsOJ4OrOGk9bHXiqHEZT7LtWxWNrjKtcRGPh/Ya83vz+9npD9svtt+o5CYaKPE/oX7d5mcVZtFk9Gyr6k4930kHSTTN/m38zvOdYXTz5W7jMWaxXEtEw5PWQKfxaX7mYTRRybk8aInicpy0hlE6HYf3x9FE74OzfTGOBx++b5n5ctH5KYjsfpofr6/IznV4E84/rTxSt2JznpuROFnswTNRt29uRu3WPx8zdsSu3tIm/2PtCFrayOXdX+XuPMetzyz8Wp15z/ld61h2e51WYSbfOj7a7R4tt36nNdBTUK5QOv61PnWsVAMvqn0vqrteVPe8qO57UT1YUj3Y60oe1UMvqkdeVGXPj6z0Ixv4ke37kd31I7vnR3bfj6yfMSb9DDLpZ5QFfkZZ4GeUBX6KWOCnigWEMvbYkKrGCiFRQwdRy2vrJmp5Zd1ELa+rm6jl6sBN1HJx4CZqOW+5iVrOWm6ilnOWm6jtwsBR1XLGclS1XBY4qlquChxVLRcFjqqWawJHVcslgaOql5FluyBwVPUytmyXA46qXsaW7WLAUdVLxbJdCjxSfWSYUmMZoP1VHFQtL6ujquVldVS1vKyOqpZLAUdVy7WAo6rllOWoajllOapaTlmOqrbrAVdZy0nLVdZyReAqa7kkcJW1XBO4ylouClxlLVcFrrJ+xpjtusBV1s8os10ZuMr6GWW2awNXWT9VzHZ18EjW/tXrOv++MH9TmyGg7a82bAFtf89hC2j7Sw9bQNt/y2ALaPvPHGwBD5oOeNh0wKOmA66slJqJ2PhcIxufbGTjs41sfLqRjc83svEJRzY+48jGpxzZ+JwTND7nBM2vbxqfc6z/xYovIsecs/aNwTrL1PkLhgwBbe8iW0Dbm8gW0PYesgW0LRtsAW2rBltA26LBFtC2ZrAFtC0ZbAGtl6l8ERufa6yXqXwRG59trJepfBEbn2+sl6l8ERufcayXqXwRG59zrJepfBGbX980PudYL1P5InLMOU4vddRZss7fAWEObnt3vQS3vdFegtvecy/BbUuOl+C21cdLcNvnZ70Et33K1ktw22dxvQS3fjDeT3TbJ3v9RLd9zN5PdNun8f1Et31o309022f7/US3fQXAT/SvOtNZv1DgJ/pXneusX0/wE/2rznXWy3U/0b/qis56Gb+I/t7mLczynWlxIibqdvGSZ/FuZzu9GXWKtzTXvs65ePE6VdkP8WwyTNt7vY6Qcq8j+vpvwZ7dK6F3OcbDu+XD4WmYqVGc3L+4i9L5i8sPV8Pi7e5c4FUyVMnrmX6P2PpAzXG/yvGbCtNZouYY+lXo8i5Q31cvXq5dDfVGJZFKS9w8UnlDpuM46+o3fteGTL903utJ027xMM40HodZFE9yqFaaqen2hbqME9Wyy6Rf1UhNhqsnNP+svZ9nQV9ngn5DWOo/ytfB174pv5Dtno9UdjbJ9PXJQ1zOJoOCtL0l/rJ4H1wTqoej360dG7pFl6KdXUVpntf6OLtAui0d1M2v31k4uGr/DeyqtsAvX5gudc+ncRppwR/zj23OZtG0zBeokvjWDWmBFU2GSg/cbdlxPHrRruseeBmpsc63dnlN5+NklMSzqRqK774T/yg/v+ueX4VpOZ/oAba13Hv/xd78gnTD0eiljtEdq8kouxLPRSD+I1ovxuOWOF79RjqOBqq9Lbfe9d5vrR1vj84kTkT7Oj+V3vfiOg9TpmoZV3/2rxMh3W+QbjqNS7131++7H1Q+vZ2czC9ePcVCtbzt166numgXiQo/1Dn4k+Mxrt/X16s8uxOd1joZykwpCmP3fO57ooanuuSm74or+b7epVzc6OksvWrXvRf5LT2e38/6I2k8PrY5y67+Zt0oaZbEH5RdnPl360aKp+EgX23ZhSq/XPusihCLUHVVFhPJ6rRSZ3g4Tz66LYbz6sSTr1Wlq5rLcLNn/dQpqqrV9z+tW1PotrMj/vjzrfjvqz9fizevXr/95fefxK+vfvrlVPx89vrMTuBlPmuru1Av0UQWizTOF9KT2cc8DwaiWCKmIkwH+eIlmowsFBfXXussVeawIy7sJ5dEZbNkIqZhkqqX4zjM2qGe8rfyW7n02UXxmdXFXL9EWwpbnsI64U9fwZ/qs7fSC+Op+VvmX8UuCzjAAQ5wgAMc4AAHOMABDnA2Huex64cmStQQNKABDWhAAxrQgAY0oAENaEBTTfPIJ0nTaN8j4AAHOMABDnCAAxzgAAc4wAFOHRx7D7DiX9jmnl4gBSlIQQpSkIIUpCAFKUhBClKQgnQzSNeaKRakc3NEkIIUpCAFKUhBClKQghSkIAUpSEG6GaRODqwF9dxRFdSgBjWoQQ1qUIMa1KAGNahBDWpQg/orUi+whkl4214rdtfNomys3lyFU9XN1F3WfvZzPEvS9Rj3j498qz5OVRJms0SJ9sstrbFGZGdHvBgORSgKLXEbZVcijT8qMeyvOTK9GXXD6VRvKNLS0Vtbaw5YtG6YZcl8C5n9nuNBesOXwP6gNLvX+65ovO1wMriKk9bDZieOGpfxJNu+VdHoKtMaF/F4aK8xvzu/n53+sP1i++2VSj7GaRZm4o3KpnGUC5/G8TiajJ5tVd2v5zvpIImm2b+N33m+M4xuvtxtPMYslmuJaHjSGuh0Ps3PP4wmKjmXhy1RXJST1jBKp+Pw/jia6P1wti/G8eDD9y0zXy46PwWR3U/z4/V12bkOb8L5p5VH6lZs0nMzEieLvXgm6vbNzajd+udjxo7Y1Vvb5H+sHUlLG7q8+3uXqM+s/Ez7qO7vdvum3Z/mzn8re09VqAZeVPteVHe9qO55Ud33orq8597+gXkHMDfVlb30ZHdvWXW3tuqRF9XVjT75ZKUf2cCPbN+P7K4f2T0/svt+ZA/8yPoZZNLPKAv8jLLAzygL/BSxwE8VCwhl7LExVY0VQqKGDqKW19ZN1PLKuolaXlc3UcvVgZuo5eLATdRybeAmajlruYlazlluorYLA0dVyxnLUdVyWeCoarkqcFS1XBQ4qlquCRxVLZcEjqqWKwJHVS9Dy3Y94FgDvIwt29WAo6qXgmW7FnBUrVuyHhmn1FgGaJ8VB1XLy+qoanlZHVUtL6ujquVSwFHVci3gqGq5GHBUtZyyHFUtpyxHVdv1gKus5aTlKmu5InCVtVwSuMparglcZS0XBa6ylqsCV1nLZYGrrJ9BZrswcK0KfkaZ7dLAVdZPEbNdHLjK1i1j9q9g1/n3hfkb2wwBbX+1YQto+3sOW0DbX3rYAtr+WwZbQNt/5mALeNB0wMOmAx41HXBlpdRMxMbnGtn4ZCMbn21k49ONbHy+kY1POLLxGUc2PuXIxuecoPE5J2h+fdP4nGP9L1Z8ETnmnLVvDtZZps5fNGQIaHsX2QLa3kS2gLb3kC2gbdlgC2hbNdgC2hYNtoC2NYMtoG3JYAtovUzli9j4XGO9TOWL2PhsY71M5YvY+HxjvUzli9j4jGO9TOWL2PicY71M5YvY/Pqm8TnHepnKF5FjznF6uaPOknX+LghzcNu76yW47Y32Etz2nnsJbltyvAS3rT5egts+o+4luO1Ttl6C2z6L6yW49YPxfqLbPtnrJ7rtY/Z+ots+je8nuu1D+36i2z7b7ye67SsAfqLbvingJ/pXneqs3zvws6b5qnOd9VsMfqJ/1QWd9dLdT3TXJd17m7cwy3enxYmYqNvFS57Fu53t9GbUKd7SXPs65+IF7FRlP8SzyTBt7/U6Qsq9jujrvwV7dq+E3uUYD++YD4enYaZGcXL/4i5K568vP1wNi7e8c4FXyVAlr2f6bWLrAzXH/SrHbypMZ4maY+gXosu7QH1vvXi5djXUG5VEKi1x80jlDZmO46yr3/hdGzL90nmvJ027xcM403gcZlE8yaFaaaam2xfqMk5Uyy6TflUjNRmuntD8s/Z+ngV9nQn6DWGp/yhfCl/7vvxCtns+UtnZJNPXJw9xOZsMCtL2lvjL4q1wTagejn63dmzoFl2KdnYVpXle6+PsAum2dFA3v35n4eCq/Tewq9oCv3xhutQ9n8ZppAV/zD+2OZtF0zJfoEriWzekBVY0GSo9cLdlx/HoRbuue+BlpMY639rlNZ2Pk1ESz6ZqKL77Tvyj/Pyue34VpuV8ogfY1nLv/Rd78wvSDUejlzpGd6wmo+xKPBeB+I9ovRiPW+J49RvpOBqo9rbcetd7v7V2vD06kzgR7ev8VHrfi+s8TJmqZVz92b9OhHS/QbrpNC713l2/735Q+fR2cjK/ePUUC9Xytl+7nuqiXSQq/FDn4E+Ox7h+X1+v8uxOdFrrZCgzpSiM3fO5/4kanuqSm74rruT7epdycaOns/SqXfde5Lf0eH4/64+k8fjY5iy7+pt1o6RZEn9QdnHm360bKZ6Gg3y1ZReq/HLtsypCLELVVVlMJKvTSp3h4Tz56LYYzqsTT75Wla5qLsPNnvVTp6iqVt//tG5NodvOjvjjz7fiv6/+fC3evHr99pfffxK/vvrpl1Px89nrMzuBl/msre5CvUQTWSzSOF9IT2Yf8zwYiGKJmIowHeSLl2gyslBcXHuts1SZw464sJ9cEpXNkomYhkmqXo7jMGuHesrfym/l0mcXxWdWF3P9Em0pbHkK64Q/fQWfqs/eSi8MqOZvmX8V2yzgAAc4wAEOcIADHOAABzjA2Xicx64fmihRQ9CABjSgAQ1oQAMa0IAGNKABTTXNI58kTaN9j4ADHOAABzjAAQ5wgAMc4AAHOHVw7D3Ain9hm3t6gRSkIAUpSEEKUpCCFKQgBSlIQQrSzSBda6ZYkM7NEUEKUpCCFKQgBSlIQQpSkIIUpCAF6WaQOjmwFtRzR1VQgxrUoAY1qEENalCDGtSgBjWoQQ3qr0i9wBom4W17rdhdN4uysXpzFU5VN1N3WfvZz/EsSddj3D8+8q36OFVJmM0SJdovt7TGGpGdHfFiOBShKLTEbZRdiTT+qMSwv+bI9GbUDadTvaFIS0dvba05YNG6YZYl8y1k9nuOB+kNXwL7g9LsXu+7ovG2w8ngKk5aD5udOGpcxpNs+1ZFo6tMa1zE46G9xvzu/H52+sP2i+23Vyr5GKdZmIk3KpvGUS78swqzaDJ6tlV1v57vpIMkmmb/Nn7n+c4wuvlyt/EYs1iuJaLhSWug0/k0P/8wmqjkXB61RHFRTlrDKJ2Ow/vjaKL3w9m+GMeDD9+3zHy56PwURHY/zY/X12XnOrwJ559WHqlbsUnPzUicLPbimajbNzejduufjxk7YldvbZP/sXYkLW3o8u7vXaI+s/Iz7aMq+8UeYAM9/egdn+Zufyv7TVUoBWxKfTalXTalPTalfTalAzalQzalIzallc03iVJ8WS750lzy5bnkS3TJl+mSL9UlX65LvmSXfNke8GV7wDin82V7wJftgWO2PzZesqyAiRo6CFVcKzehiivlJlRxndyEKuYEN6GKGcFNqGI+cBOqmA3chCrmAjehqsLnqMSW21Vlz1GJLburip6jElt+V5U8RyW2DK8qeI5KbDleVe4clfjmb7Ycr6p1jkouOf7I+MKyzGlvDAelisvkqFRxmRyVKi6To1LFVOCoVDEVOCpVTAWOShVTgaNSxVTgqFRV71yl+LK8quK5SvHleVXNc5Xiy/SqqucqxZfrVXXPVYov26sqn6sU45zOl+1Vxc9Vam22YzN6bEZfClkchs3oHzVsRm+Dhc3osRl9nYbN6HXDZvTYjL5o2Iy++pvYjH69gG7YjH4z9mwEDnCAAxzgAAc4wAEOcIADnI3HeWJbOYIGNKABDWhAAxrQgAY0oAHN5tA8rT0bgQMc4AAHOMABDnCAAxzgAOdJ4XxFc7YXgyy6ibL7X9WNGov2/8Ce7Snas5U3aSOc2ILe03diyxmbcmLrdXt7LEZsJKE+l9Aul9Ael9A+l9ABl9Ahl9ARl9DKe/k0JbbclmzJLdmyW7Klt2TLb8mW4JItwyVbiku2HA/Ycjzgm7/Zcjxgy/HALcftHddWteobrlF0zFepvt0aRcc8C9Q3W6PomGeA+lZrFB3z6CcYrZGEuDK6orwRXNZIQlxJXVHbCBZrJCGuvK4obAR/NdLMyJXZFVWNYK5GEuLK7IqSVt9ZbVWHYKxGEjJfIoKtGknIPPgJpmokIfPgJ1iqkYTMg59iqEZTYsvtispGcVOjKbGld0Vxo1ip0ZTYMryivlF81GhzJVuOV5Q4iokaTYktxyuqHBzU4KAGB7VHhHBQ0w0OanBQg4NaRYODGhzUnM4KDmor8R2+Dwe15QYHtYfm4YGtJ2Y0ABzgAAc4wAEOcIADHOAABzgbj/PE/AdAAxrQgAY0oAENaEADGtCAZnNovhnfA+AABzjAAQ5wgAMc4AAHOMCpH+8rOKjBMO1JGaa9GVyp4Sy/yvp1qFRlQvY2wzZNboBtmmzMNm2/eCm0rsUNl1CfS2iXS2iPS2ifS+iAS+iQS+iIS2jl7XuaEltuS7bklmzZLdnSW7Llt2RLcMmW4ZItxSVbjgdsOR7wzd9sOR6w5XjgluP2tmmrWvVt0yg65qtU3zaNomOeBerbplF0zDNAfds0io559BNs00hCXBldUd4ItmkkIa6krqhtBNs0khBXXlcUNoJtGmlm5MrsiqpGsE0jCXFldkVJq2+btqpDsE0jCZkvEcE2jSRkHvwE2zSSkHnwE2zTSELmwU+xTaMpseV2RWWj2KbRlNjSu6K4UWzTaEpsGV5R3yi2abS5ki3HK0ocxTaNpsSW4xVVDrZpsE2DbdojQtim6QbbNNimwTatosE2DbZpTmcF27SV+A7fh23acoNt2kPz8JTWE3MXAA5wgAMc4AAHOMABDnCAA5yNx3lipgOgAQ1oQAMa0IAGNKABDWhAszk034zZAXCAAxzgAAc4wAEOcIADHODUjwfbtLLBNu3BNk1uhm1asAG2aUFjtmm9bsDimkbR6TPp7DLp7DHp7DPpHDDpHDLpHDHprLx0TxLiymjJldKSK6clV1JLrqyWXGktufJaciW25MrsgCuzA7a5miuzA67MDpwy294ebUWqvjsaQcZ4hep7oxFkjOO+vjMaQcY45uv7ohFkjOOd4IpG0WHKY3MZI1iiUXSYUtlcwwh+aBQdpmw2FzCCGRplHmTKZ3P1IjihUXSY8tlcuurboK3IEFzQKDrGy0PwQKPoGIc7wQGNomMc7gT/M4qOcbhT3M9IQlwZba5gFOszkhBXUpuLGMX3jCTEldfmOkYxPSPNjFyZbS5lFMczkhBXZpurGezOYHcGu7NHhLA70w12Z7A7g91ZRYPdGezOnM4Kdmcr8R2+D7uz5Qa7s4fm4emqJ+YKABzgAAc4wAEOcIADHOAABzgbj/PEzAJAAxrQgAY0oAENaEADGtCAZnNovhmTAuAABzjAAQ5wgAMc4AAHOMCpHw92Z2WD3dmD3VmwGXZn/Q2wO+s3aHfW22PyOyMI9bmEdrmE9riE9rmEDriEDrmEjriEPnvdnqLEltuSLbklW3ZLtvSWbPkt2RJcsmW4ZEtxyZbjAVuOB3zzN1uOB2w5HrjluIsN2rIWxQetvo75KlGc0OrrmGcBihdafR3zDEBxQ6uvYx79JD80ghBXRleUN5IlGkGIK6krahvJFY0gxJXXFYWNZIxGmBm5MruiqpG80QhCXJldUdIo9mjLOiR/NIKQ+RKRHNIIQubBT/JIIwiZBz/JJY0gZB78NJ80ihJbbldUNppVGkWJLb0rihvNLY2ixJbhFfWNZphGmSvZcryixNE80yhKbDleUeVgmwbbNNimPSKEbZpusE2DbRps0yoabNNgm+Z0VrBNW4nv8H3Ypi032KY9NA9PaT0xdwHgAAc4wAEOcIADHOAABzjA2XicJ2Y6ABrQgAY0oAENaEADGtCABjSbQ/PNmB0ABzjAAQ5wgAMc4AAHOMABTv14sE0rG2zTHmzT+pthm7a7AbZpu43Zpu0XL4XWtbjhEupzCe1yCe1xCe1zCR1wCR1yCR1xCa28fU9TYsttyZbcki27JVt6S7b8lmwJLtkyXLKluGTL8YAtxwO++ZstxwO2HA/cctzeNm1Vq75tGkXHfJXq26ZRdMyzQH3bNIqOeQaob5tG0TGPfoJtGkmIK6MryhvBNo0kxJXUFbWNYJtGEuLK64rCRrBNI82MXJldUdUItmkkIa7Mrihp9W3TVnUItmkkIfMlItimkYTMg59gm0YSMg9+gm0aScg8+Cm2aTQlttyuqGwU2zSaElt6VxQ3im0aTYktwyvqG8U2jTZXsuV4RYmj2KbRlNhyvKLKwTYNtmmwTXtECNs03WCbBts02KZVNNimwTbN6axgm7YS3+H7sE1bbrBNe2gentJ6Yu4CwAEOcIADHOAABzjAAQ5wgLPxOE/MdAA0oAENaEADGtCABjSgAQ1oNofmmzE7AA5wgAMc4AAHOMABDnCAA5z68WCbVjbYpj3Ypu1uhm3a3gbYpu01ZpvW6wYsrmkUnT6Tzi6Tzh6Tzj6TzgGTziGTzhGTzspL9yQhroyWXCktuXJaciW15MpqyZXWkiuvJVdiS67MDrgyO2Cbq7kyO+DK7MAps+3t0Vak6rujEWSMV6i+NxpBxjju6zujEWSMY76+LxpBxjjeCa5oFB2mPDaXMYIlGkWHKZXNNYzgh0bRYcpmcwEjmKFR5kGmfDZXL4ITGkWHKZ/Npau+DdqKDMEFjaJjvDwEDzSKjnG4ExzQKDrG4U7wP6PoGIc7xf2MJMSV0eYKRrE+IwlxJbW5iFF8z0hCXHltrmMU0zPSzMiV2eZSRnE8IwlxZba5msHuDHZnsDt7RAi7M91gdwa7M9idVTTYncHuzOmsYHe2Et/h+7A7W26wO3toHp6uemKuAMABDnCAAxzgAAc4wAEOcICz8ThPzCwANKABDWhAAxrQgAY0oAENaDaH5psxKQAOcIADHOAABzjAAQ5wgAOc+vFgd1Y22J092J3tbYbd2f4G2J3tN2h31ttj8jsjCPW5hHa5hPa4hPa5hA64hA65hI64hD573Z6ixJbbki25JVt2S7b0lmz5LdkSXLJluGRLccmW4wFbjgd88zdbjgdsOR645biLDdqyFsUHrb6O+SpRnNDq65hnAYoXWn0d8wxAcUOrr2Me/SQ/NIIQV0ZXlDeSJRpBiCupK2obyRWNIMSV1xWFjWSMRpgZuTK7oqqRvNEIQlyZXVHSKPZoyzokfzSCkPkSkRzSCELmwU/ySCMImQc/ySWNIGQe/DSfNIoSW25XVDaaVRpFiS29K4obzS2NosSW4RX1jWaYRpkr2XK8osTRPNMoSmw5XlHlYJsG2zTYpj0ihG2abrBNg20abNMqGmzTYJvmdFawTVuJ7/B92KYtN9imPTQPT2k9MXcB4AAHOMABDnCAAxzgAAc4wNl4nCdmOgAa0IAGNKABDWhAAxrQgAY0m0PzzZgdAAc4wAEOcIADHOAABzjAAU79eLBNKxts0x5s0/Y3wzbtYANs0w4as03bL14KrWtxwyXU5xLa5RLa4xLa5xI64BI65BI64hJaefuepsSW25ItuSVbdku29JZs+S3ZElyyZbhkS3HJluMBW44HfPM3W44HbDkeuOW4vW3aqlZ92zSKjvkq1bdNo+iYZ4H6tmkUHfMMUN82jaJjHv0E2zSSEFdGV5Q3gm0aSYgrqStqG8E2jSTEldcVhY1gm0aaGbkyu6KqEWzTSEJcmV1R0urbpq3qEGzTSELmS0SwTSMJmQc/wTaNJGQe/ATbNJKQefBTbNNoSmy5XVHZKLZpNCW29K4obhTbNJoSW4ZX1DeKbRptrmTL8YoSR7FNoymx5XhFlYNtGmzTYJv2iBC2abrBNg22abBNq2iwTYNtmtNZwTZtJb7D92Gbttxgm/bQPDyl9cTcBYADHOAABzjAAQ5wgAMc4ABn43GemOkAaEADGtCABjSgAQ1oQAMa0GwOzTdjdgAc4AAHOMABDnCAAxzgAAc49ePBNq1ssE17sE072AzbtMMNsE07bMw2rdcNWFzTKDp9Jp1dJp09Jp19Jp0DJp1DJp0jJp2Vl+5JQlwZLblSWnLltORKasmV1ZIrrSVXXkuuxJZcmR1wZXbANldzZXbAldmBU2bb26OtSNV3RyPIGK9QfW80goxx3Nd3RiPIGMd8fV80goxxvBNc0Sg6THlsLmMESzSKDlMqm2sYwQ+NosOUzeYCRjBDo8yDTPlsrl4EJzSKDlM+m0tXfRu0FRmCCxpFx3h5CB5oFB3jcCc4oFF0jMOd4H9G0TEOd4r7GUmIK6PNFYxifUYS4kpqcxGj+J6RhLjy2lzHKKZnpJmRK7PNpYzieEYS4spsczWD3RnszmB39ogQdme6we4MdmewO6tosDuD3ZnTWcHubCW+w/dhd7bcYHf20Dw8XfXEXAGAAxzgAAc4wAEOcIADHOAAZ+NxnphZAGhAAxrQgAY0oAENaEADGtBsDs03Y1IAHOAABzjAAQ5wgAMc4AAHOPXjwe6sbLA7W9id9TfD7exoA9zOjhp0O+vtMdmdEYT6XEK7XEJ7XEL7XEIHXEKHXEJHXEKfvW1PUWLLbcmW3JItuyVbeku2/JZsCS7ZMlyypbhky/GALccDvvmbLccDthwP3HLcxQVtWYtig1Zfx3yVKEZo9XXMswDFCq2+jnkGoJih1dcxj36SHRpBiCujK8obyRGNIMSV1BW1jWSKRhDiyuuKwkbyRSPMjFyZXVHVSNZoBCGuzK4oaRR3tGUdkj0aQch8iUgGaQQh8+AnWaQRhMyDn2SSRhAyD36aTRpFiS23KyobzSmNosSW3hXFjWaWRlFiy/CK+kbzS6PMlWw5XlHiaJZpFCW2HK+ocnBNg2saXNMeEcI1TTe4psE1Da5pFQ2uaXBNczoruKatxHf4PlzTlhtc0x6ah4e0npi5AHCAAxzgAAc4wAEOcIADHOBsPM4T8xwADWhAAxrQgAY0oAENaEADms2h+Wa8DoADHOAABzjAAQ5wgAMc4ACnfjy4ppUNrmkL17TdjXBN6/eevmtaztiUa9p+8U5oXYcbLqE+l9Aul9Ael9A+l9ABl9Ahl9ARl9DKy/c0JbbclmzJLdmyW7Klt2TLb8mW4JItwyVbiku2HA/Ycjzgm7/Zcjxgy/HALcftXdNWteq7plF0zFepvmsaRcc8C9R3TaPomGeA+q5pFB3z6Ce4ppGEuDK6orwRXNNIQlxJXVHbCK5pJCGuvK4obATXNNLMyJXZFVWN4JpGEuLK7IqSVt81bVWH4JpGEjJfIoJrGknIPPgJrmkkIfPgJ7imkYTMg5/imkZTYsvtispGcU2jKbGld0Vxo7im0ZTYMryivlFc02hzJVuOV5Q4imsaTYktxyuqHFzT4JoG17RHhHBN0w2uaXBNg2taRYNrGlzTnM4Krmkr8R2+D9e05QbXtIfm4SGtJ2YuABzgAAc4wAEOcIADHOAABzgbj/PEPAdAAxrQgAY0oAENaEADGtCAZnNovhmvA+AABzjAAQ5wgAMc4AAHOMCpHw+uaWWDa9rCNW1vM1zT5Aa4psnGXNN63YDFNI2i02fS2WXS2WPS2WfSOWDSOWTSOWLSWXnnniTEldGSK6UlV05LrqSWXFktudJacuW15EpsyZXZAVdmB2xzNVdmB1yZHThltr072opUfXM0gozxCtW3RiPIGMd9fWM0goxxzNe3RSPIGMc7wRSNosOUx+YyRnBEo+gwpbK5hhHs0Cg6TNlsLmAELzTKPMiUz+bqRTBCo+gw5bO5dNV3QVuRIZigUXSMl4dggUbRMQ53ggEaRcc43An2ZxQd43CnmJ+RhLgy2lzBKM5nJCGupDYXMYrtGUmIK6/NdYzieUaaGbky21zKKIZnJCGuzDZXM7idwe0MbmePCOF2phvczuB2Breziga3M7idOZ0V3M5W4jt8H25nyw1uZw/Nw8NVT8wUADjAAQ5wgAMc4AAHOMABDnA2HueJeQWABjSgAQ1oQAMa0IAGNKABzebQfDMeBcABDnCAAxzgAAc4wAEOcIBTPx7czsoGt7OF29n+ZridBRvgdhY06HbW22OyOyMI9bmEdrmE9riE9rmEDriEDrmEjriEPnvbnqLEltuSLbklW3ZLtvSWbPkt2RJcsmW4ZEtxyZbjAVuOB3zzN1uOB2w5HrjluIsL2rIWxQatvo75KlGM0OrrmGcBihVafR3zDEAxQ6uvYx79JDs0ghBXRleUN5IjGkGIK6krahvJFI0gxJXXFYWN5ItGmBm5MruiqpGs0QhCXJldUdIo7mjLOiR7NIKQ+RKRDNIIQubBT7JIIwiZBz/JJI0gZB78NJs0ihJbbldUNppTGkWJLb0rihvNLI2ixJbhFfWN5pdGmSvZcryixNEs0yhKbDleUeXgmgbXNLimPSKEa5pucE2Daxpc0yoaXNPgmuZ0VnBNW4nv8H24pi03uKY9NA8PaT0xcwHgAAc4wAEOcIADHOAABzjA2XicJ+Y5ABrQgAY0oAENaEADGtCABjSbQ/PNeB0ABzjAAQ5wgAMc4AAHOMABTv14cE0rG1zTFq5pB5vhmtbfANe0fmOuafvFO6F1HW64hPpcQrtcQntcQvtcQgdcQodcQkdcQisv39OU2HJbsiW3ZMtuyZbeki2/JVuCS7YMl2wpLtlyPGDL8YBv/mbL8YAtxwO3HLd3TVvVqu+aRtExX6X6rmkUHfMsUN81jaJjngHqu6ZRdMyjn+CaRhLiyuiK8kZwTSMJcSV1RW0juKaRhLjyuqKwEVzTSDMjV2ZXVDWCaxpJiCuzK0pafde0VR2CaxpJyHyJCK5pJCHz4Ce4ppGEzIOf4JpGEjIPfoprGk2JLbcrKhvFNY2mxJbeFcWN4ppGU2LL8Ir6RnFNo82VbDleUeIormk0JbYcr6hycE2Daxpc0x4RwjVNN7imwTUNrmkVDa5pcE1zOiu4pq3Ed/g+XNOWG1zTHpqHh7SemLkAcIADHOAABzjAAQ5wgAMc4Gw8zhPzHAANaEADGtCABjSgAQ1oQAOazaH5ZrwOgAMc4AAHOMABDnCAAxzgAKd+PLimlQ2uaQvXtMPNcE3b3QDXtN3GXNN63YDFNI2i02fS2WXS2WPS2WfSOWDSOWTSOWLSWXnnniTEldGSK6UlV05LrqSWXFktudJacuW15EpsyZXZAVdmB2xzNVdmB1yZHThltr072opUfXM0gozxCtW3RiPIGMd9fWM0goxxzNe3RSPIGMc7wRSNosOUx+YyRnBEo+gwpbK5hhHs0Cg6TNlsLmAELzTKPMiUz+bqRTBCo+gw5bO5dNV3QVuRIZigUXSMl4dggUbRMQ53ggEaRcc43An2ZxQd43CnmJ+RhLgy2lzBKM5nJCGupDYXMYrtGUmIK6/NdYzieUaaGbky21zKKIZnJCGuzDZXM7idwe0MbmePCOF2phvczuB2Breziga3M7idOZ0V3M5W4jt8H25nyw1uZw/Nw8NVT8wUADjAAQ5wgAMc4AAHOMABDnA2HueJeQWABjSgAQ1oQAMa0IAGNKABzebQfDMeBcABDnCAAxzgAAc4wAEOcIBTPx7czsoGt7OF29nRZrid7W2A29leY25ncrfX7S01uctifsYo2/cju+tHds+P7L4f2QM/sod+ZI/8yK6868+p62mcSU8DTXoaadLTUJOexpr0NNikp9EmPQ036Wm8BZ7GW+Crrnkab4Gn8RZQxpu9q1yVcn2TOT5V26tb34KOT9V2JqtvUMenajuL1bev41O1ncEI5naMsn5Gl/VygeCExyjrZ4BZrxUItnmMsn7GmPVCgeCxx1gV/Iwy61UCwZCPUdbPKLNeItR376tSJZj5McraXlqC1R+jrO0ERjACZJS1ncAINoGMsrYTGMVEkFPX0zizXilQHAc5dT0NNevFAsWekFPX02izXi9QvAw564Sn8Wa9ZKAYH3Lqehpv1qsGuCTCJREuiY8I4ZKoG1wS4ZIIl8SKBpdEuCQ6nRVcElfiO3wfLonLDS6JD83DQ5lPzEwEOMABDnCAAxzgAAc4wAEOcDYe54l5jIAGNKABDWhAAxrQgAY0oAHN5tB8M94mwAEOcIADHOAABzjAAQ5wgFM/3ldwSXyrPk5VEmazRIn2yy2YJj4t00SV3EQDJf4n1Jn3axxPhb5h+jnn3d7LzTBQ3N8AA8X9xgwU94+6R0vt8IjFP5FPte9FddeL6p4X1X0vqgdeVA+9qB55UV2xN2CU9TO6pJ/hJf2ML+lngEk/I0z6GWLSzxiTfgaZ9DPKAj+jLPBUw/yMssDPKAsIo8zeKLFCuL5PIpuo5ZWt75LIJmo5d9X3SGQTtZy36jsksolazlkEf0Q+VS9jynZZQDBH5FP1Mqxs1wQEZ0Q+VS8jy3ZBQLBF5KsBXsaW7WqA4InIp+plbNkuBeobIlaIEvwQ+VQtLyvBDZFP1XLKIngh8qlaTlkEJ0Q+Vcspi+KDyCjrZ3TZrggoJoiMsn4GmO2igOKAyCjrZ4zZrgso9oeMVcHPKLNdGlC8Dxll/Ywy29UBjA9hfAjjw0eEMD7UDcaHMD6E8WFFg/EhjA+dzgrGhyvxHb4P48PlBuPDh+bhOcsn5g8CHOAABzjAAQ5wgAMc4AAHOBuP88RsQ0ADGtCABjSgAQ1oQAMa0IBmc2i+GbsS4AAHOMABDnCAAxzgAAc4wKkfD8aHX27frPHh3PDwZ1X8z4uPF5GaZHPrwzeDKzWc5dd/WxxsigXiwQZYIB40ZoFYvHha14KJSafPpLPLpLPHpLPPpHPApHPIpHPEpLPiLUAS4spoyZXSkiunJVdSS66sllxpLbnyWnIltuTK7IArswO2uZorswOuzA6cMtvesm9Fqr5JH0HGeIXqG/ERZIzjvr7ZHkHGOObrG+oRZIzjnWCaR9FhymNzGSNY4VF0mFLZXMMIBncUHaZsNhcwgm0dZR5kymdz9SKY0VF0mPLZXLrqW8ytyBBM5Sg6xstDMI6j6BiHO8EcjqJjHO4EAziKjnG4U0zeSEJcGW2uYBTrNpIQV1KbixjFkI0kxJXX5jpGsVkjzYxcmW0uZRTzNJIQV2abqxks0TbCEg3d6EY3utGNbnSjG93oRje60Y1udKMb3U+p+74b36gkiYbqt1D/UCW7PVjiL50JLPEfGizxnRos8WGJ79Bgif95gyX+5w2W+I4NlviwxP9igyU+cIADHOAABzjAAQ5wgAMc4ABnEwwlQQMa0IAGNKABDWhAAxrQgGZzaL4ZI0vgAAc4wAEOcIADHOAABzjAqR/vK1ji/xh9VJM0iidjlaYwxH9ahvhx8kGcXV5Gg0hNBvcPNvjNGuCX3/6sZ/n/L/4+/98H9fIvD/9zEQ/v9f9eZR/H//5f/w/cNxiz"
               },
               {
                  "name" : "annual_peak_electric_demand",
                  "units" : "kW",
                  "value" : 43.4694
               },
               {
                  "name" : "first_year_capital_cost",
                  "units" : "$",
                  "value" : 0
               },
               {
                  "name" : "annual_utility_cost",
                  "units" : "$",
                  "value" : 11809.67
               },
               {
                  "name" : "total_lifecycle_cost",
                  "units" : "$",
                  "value" : 197722.44
               }
            ],
            "step_warnings" : [ "A table in Annual Overview section returned false and was skipped." ]
         }
      }
   ],
   "updated_at" : "20170710T182837Z",
   "weather_file" : "USA_CO_Denver.Intl.AP.725650_TMY3.epw"
}
