{
   "completed_at" : "20170710T183247Z",
   "completed_status" : "Success",
   "created_at" : "2017-07-10 18:30:42 +0000",
   "current_step" : 5,
   "description" : "",
   "eplusout_err" : "Program Version,EnergyPlus, Version 8.7.0-78a111df4a, YMD=2017.07.10 18:31,IDD_Version 8.7.0\n   ************* IDF Context for following error/warning message:\n   ************* Note -- lines truncated at 300 characters, if necessary...\n   *************      5 Building,\n   ************* indicated Name=NECB 2011-SmallOffice-NECB HDD Method-CAN_SK_North.Battleford.718760_CWEC.epw created: 2017-07-10 18:30:48 +0000\n   ************* Only last 1 lines before error line shown.....\n   *************      6   NECB 2011-SmallOffice-NECB HDD Method-CAN_SK_North.Battleford.718760_CWEC.epw created: 2017-07-10 18:30:48 +0000, !- Name\n   ** Warning ** IP: IDF line~6 Alpha Argument length exceeds maximum, will be truncated=  NECB 2011-SmallOffice-NECB HDD Method-CAN_SK_North.Battleford.718760_CWEC.epw created: 2017-07-10 18:30:48 +000\n   **   ~~~   ** Will be processed as Alpha=NECB 2011-SMALLOFFICE-NECB HDD METHOD-CAN_SK_NORTH.BATTLEFORD.718760_CWEC.EPW CREATED: 2017-07-10 18:30:48 +0000\n   ************* Beginning Zone Sizing Calculations\n   ** Warning ** ProcessScheduleInput: Schedule:Day:Interval=\"ECONOMIZER MAX OA FRACTION 100 PCT DEFAULT\", Blank Schedule Type Limits Name input -- will not be validated.\n   ** Warning ** ProcessScheduleInput: Schedule:Day:Interval=\"SCHEDULE DAY 1\", Blank Schedule Type Limits Name input -- will not be validated.\n   ** Warning ** ProcessScheduleInput: Schedule:Day:Interval=\"SCHEDULE DAY 10\", Blank Schedule Type Limits Name input -- will not be validated.\n   ** Warning ** ProcessScheduleInput: Schedule:Day:Interval=\"SCHEDULE DAY 11\", Blank Schedule Type Limits Name input -- will not be validated.\n   ** Warning ** ProcessScheduleInput: Schedule:Day:Interval=\"SCHEDULE DAY 12\", Blank Schedule Type Limits Name input -- will not be validated.\n   ** Warning ** ProcessScheduleInput: Schedule:Day:Interval=\"SCHEDULE DAY 13\", Blank Schedule Type Limits Name input -- will not be validated.\n   ** Warning ** ProcessScheduleInput: Schedule:Day:Interval=\"SCHEDULE DAY 14\", Blank Schedule Type Limits Name input -- will not be validated.\n   ** Warning ** ProcessScheduleInput: Schedule:Day:Interval=\"SCHEDULE DAY 15\", Blank Schedule Type Limits Name input -- will not be validated.\n   ** Warning ** ProcessScheduleInput: Schedule:Day:Interval=\"SCHEDULE DAY 16\", Blank Schedule Type Limits Name input -- will not be validated.\n   ** Warning ** ProcessScheduleInput: Schedule:Day:Interval=\"SCHEDULE DAY 17\", Blank Schedule Type Limits Name input -- will not be validated.\n   ** Warning ** ProcessScheduleInput: Schedule:Day:Interval=\"SCHEDULE DAY 18\", Blank Schedule Type Limits Name input -- will not be validated.\n   ** Warning ** ProcessScheduleInput: Schedule:Day:Interval=\"SCHEDULE DAY 19\", Blank Schedule Type Limits Name input -- will not be validated.\n   ** Warning ** ProcessScheduleInput: Schedule:Day:Interval=\"SCHEDULE DAY 2\", Blank Schedule Type Limits Name input -- will not be validated.\n   ** Warning ** ProcessScheduleInput: Schedule:Day:Interval=\"SCHEDULE DAY 20\", Blank Schedule Type Limits Name input -- will not be validated.\n   ** Warning ** ProcessScheduleInput: Schedule:Day:Interval=\"SCHEDULE DAY 21\", Blank Schedule Type Limits Name input -- will not be validated.\n   ** Warning ** ProcessScheduleInput: Schedule:Day:Interval=\"SCHEDULE DAY 5\", Blank Schedule Type Limits Name input -- will not be validated.\n   ** Warning ** ProcessScheduleInput: Schedule:Day:Interval=\"SCHEDULE DAY 6\", Blank Schedule Type Limits Name input -- will not be validated.\n   ** Warning ** ProcessScheduleInput: Schedule:Day:Interval=\"SCHEDULE DAY 7\", Blank Schedule Type Limits Name input -- will not be validated.\n   ** Warning ** ProcessScheduleInput: Schedule:Day:Interval=\"SCHEDULE DAY 8\", Blank Schedule Type Limits Name input -- will not be validated.\n   ** Warning ** ProcessScheduleInput: Schedule:Day:Interval=\"SCHEDULE DAY 9\", Blank Schedule Type Limits Name input -- will not be validated.\n   ** Warning ** ProcessScheduleInput: Schedule:Year=\"ECONOMIZER MAX OA FRACTION 100 PCT\", Blank Schedule Type Limits Name input -- will not be validated.\n   ** Warning ** ProcessScheduleInput: Schedule:Year=\"SCHEDULE RULESET 10\", Blank Schedule Type Limits Name input -- will not be validated.\n   ** Warning ** ProcessScheduleInput: Schedule:Year=\"SCHEDULE RULESET 11\", Blank Schedule Type Limits Name input -- will not be validated.\n   ** Warning ** ProcessScheduleInput: Schedule:Year=\"SCHEDULE RULESET 12\", Blank Schedule Type Limits Name input -- will not be validated.\n   ** Warning ** ProcessScheduleInput: Schedule:Year=\"SCHEDULE RULESET 13\", Blank Schedule Type Limits Name input -- will not be validated.\n   ** Warning ** ProcessScheduleInput: Schedule:Year=\"SCHEDULE RULESET 14\", Blank Schedule Type Limits Name input -- will not be validated.\n   ** Warning ** ProcessScheduleInput: Schedule:Year=\"SCHEDULE RULESET 15\", Blank Schedule Type Limits Name input -- will not be validated.\n   ** Warning ** ProcessScheduleInput: Schedule:Year=\"SCHEDULE RULESET 16\", Blank Schedule Type Limits Name input -- will not be validated.\n   ** Warning ** ProcessScheduleInput: Schedule:Year=\"SCHEDULE RULESET 17\", Blank Schedule Type Limits Name input -- will not be validated.\n   ** Warning ** ProcessScheduleInput: Schedule:Year=\"SCHEDULE RULESET 3\", Blank Schedule Type Limits Name input -- will not be validated.\n   ** Warning ** ProcessScheduleInput: Schedule:Year=\"SCHEDULE RULESET 4\", Blank Schedule Type Limits Name input -- will not be validated.\n   ** Warning ** ProcessScheduleInput: Schedule:Year=\"SCHEDULE RULESET 5\", Blank Schedule Type Limits Name input -- will not be validated.\n   ** Warning ** ProcessScheduleInput: Schedule:Year=\"SCHEDULE RULESET 6\", Blank Schedule Type Limits Name input -- will not be validated.\n   ** Warning ** ProcessScheduleInput: Schedule:Year=\"SCHEDULE RULESET 7\", Blank Schedule Type Limits Name input -- will not be validated.\n   ** Warning ** ProcessScheduleInput: Schedule:Year=\"SCHEDULE RULESET 8\", Blank Schedule Type Limits Name input -- will not be validated.\n   ** Warning ** ProcessScheduleInput: Schedule:Year=\"SCHEDULE RULESET 9\", Blank Schedule Type Limits Name input -- will not be validated.\n   ** Warning ** ProcessScheduleInput: Schedule:Constant=\"ALWAYS OFF DISCRETE\", Blank Schedule Type Limits Name input -- will not be validated.\n   ** Warning ** ProcessScheduleInput: Schedule:Constant=\"ALWAYS ON CONTINUOUS\", Blank Schedule Type Limits Name input -- will not be validated.\n   ** Warning ** CheckUsedConstructions: There are 22 nominally unused constructions in input.\n   **   ~~~   ** For explicit details on each unused construction, use Output:Diagnostics,DisplayExtraWarnings;\n   ************* Beginning System Sizing Calculations\n   ************* Beginning Plant Sizing Calculations\n   ** Warning ** GetDXCoils: Coil:Cooling:DX:SingleSpeed=\"COIL COOLING DX SINGLE SPEED 5 16KBTU/HR 14.0SEER\", invalid\n   **   ~~~   ** ...Part Load Fraction Correlation Curve Name = DXCOOL-NECB2011-REF-COOLPLFFPLR 4 has out of range value.\n   **   ~~~   ** ...Curve maximum must be <= 1.0, curve max at PLR = 0.99 is 1.015\n   **   ~~~   ** ...Setting curve maximum to 1.0 and simulation continues.\n   ** Warning ** GetDXCoils: Coil:Cooling:DX:SingleSpeed=\"COIL COOLING DX SINGLE SPEED 4 22KBTU/HR 14.0SEER\", invalid\n   **   ~~~   ** ...Part Load Fraction Correlation Curve Name = DXCOOL-NECB2011-REF-COOLPLFFPLR 3 has out of range value.\n   **   ~~~   ** ...Curve maximum must be <= 1.0, curve max at PLR = 0.99 is 1.015\n   **   ~~~   ** ...Setting curve maximum to 1.0 and simulation continues.\n   ** Warning ** GetDXCoils: Coil:Cooling:DX:SingleSpeed=\"COIL COOLING DX SINGLE SPEED 2 18KBTU/HR 14.0SEER\", invalid\n   **   ~~~   ** ...Part Load Fraction Correlation Curve Name = DXCOOL-NECB2011-REF-COOLPLFFPLR 1 has out of range value.\n   **   ~~~   ** ...Curve maximum must be <= 1.0, curve max at PLR = 0.99 is 1.015\n   **   ~~~   ** ...Setting curve maximum to 1.0 and simulation continues.\n   ** Warning ** GetDXCoils: Coil:Cooling:DX:SingleSpeed=\"COIL COOLING DX SINGLE SPEED 1 15KBTU/HR 14.0SEER\", invalid\n   **   ~~~   ** ...Part Load Fraction Correlation Curve Name = DXCOOL-NECB2011-REF-COOLPLFFPLR has out of range value.\n   **   ~~~   ** ...Curve maximum must be <= 1.0, curve max at PLR = 0.99 is 1.015\n   **   ~~~   ** ...Setting curve maximum to 1.0 and simulation continues.\n   ** Warning ** GetDXCoils: Coil:Cooling:DX:SingleSpeed=\"COIL COOLING DX SINGLE SPEED 3 19KBTU/HR 14.0SEER\", invalid\n   **   ~~~   ** ...Part Load Fraction Correlation Curve Name = DXCOOL-NECB2011-REF-COOLPLFFPLR 2 has out of range value.\n   **   ~~~   ** ...Curve maximum must be <= 1.0, curve max at PLR = 0.99 is 1.015\n   **   ~~~   ** ...Setting curve maximum to 1.0 and simulation continues.\n   ** Warning ** The Standard Ratings is calculated for Coil:Cooling:DX:SingleSpeed = COIL COOLING DX SINGLE SPEED 5 16KBTU/HR 14.0SEER but not at the AHRI test condition due to curve out of bound.\n   **   ~~~   **  Review the Standard Ratings calculations in the Engineering Reference for this coil type. Also, use Output:Diagnostics, DisplayExtraWarnings for further guidance.\n   ** Warning ** The Standard Ratings is calculated for Coil:Cooling:DX:SingleSpeed = COIL COOLING DX SINGLE SPEED 4 22KBTU/HR 14.0SEER but not at the AHRI test condition due to curve out of bound.\n   **   ~~~   **  Review the Standard Ratings calculations in the Engineering Reference for this coil type. Also, use Output:Diagnostics, DisplayExtraWarnings for further guidance.\n   ** Warning ** The Standard Ratings is calculated for Coil:Cooling:DX:SingleSpeed = COIL COOLING DX SINGLE SPEED 2 18KBTU/HR 14.0SEER but not at the AHRI test condition due to curve out of bound.\n   **   ~~~   **  Review the Standard Ratings calculations in the Engineering Reference for this coil type. Also, use Output:Diagnostics, DisplayExtraWarnings for further guidance.\n   ** Warning ** The Standard Ratings is calculated for Coil:Cooling:DX:SingleSpeed = COIL COOLING DX SINGLE SPEED 1 15KBTU/HR 14.0SEER but not at the AHRI test condition due to curve out of bound.\n   **   ~~~   **  Review the Standard Ratings calculations in the Engineering Reference for this coil type. Also, use Output:Diagnostics, DisplayExtraWarnings for further guidance.\n   ** Warning ** The Standard Ratings is calculated for Coil:Cooling:DX:SingleSpeed = COIL COOLING DX SINGLE SPEED 3 19KBTU/HR 14.0SEER but not at the AHRI test condition due to curve out of bound.\n   **   ~~~   **  Review the Standard Ratings calculations in the Engineering Reference for this coil type. Also, use Output:Diagnostics, DisplayExtraWarnings for further guidance.\n   ** Warning ** Check input. Pump nominal power or motor efficiency is set to 0, for pump=SERVICE WATER LOOP PUMP\n   ** Warning ** Output:Meter: invalid Name=\"DISTRICTCOOLING:FACILITY\" - not found.\n   ** Warning ** Output:Meter: invalid Name=\"DISTRICTHEATING:FACILITY\" - not found.\n   ** Warning ** Output:Meter:MeterFileOnly requested for \"Electricity:Facility\" (TimeStep), already on \"Output:Meter\". Will report to both eplusout.eso and eplusout.mtr\n   ************* Testing Individual Branch Integrity\n   ************* All Branches passed integrity testing\n   ************* Testing Individual Supply Air Path Integrity\n   ************* All Supply Air Paths passed integrity testing\n   ************* Testing Individual Return Air Path Integrity\n   ************* All Return Air Paths passed integrity testing\n   ************* No node connection errors were found.\n   ************* Beginning Simulation\n   ** Warning ** CalcDoe2DXCoil: Coil:Cooling:DX:SingleSpeed \"COIL COOLING DX SINGLE SPEED 5 16KBTU/HR 14.0SEER\" - Air-cooled condenser inlet dry-bulb temperature below 0 C. Outdoor dry-bulb temperature = -10.53\n   **   ~~~   **  ... Occurrence info = RUN PERIOD 1, 01/02 06:03 - 06:05\n   **   ~~~   ** ... Operation at low ambient temperatures may require special performance curves.\n   ** Warning ** CalcDoe2DXCoil: Coil:Cooling:DX:SingleSpeed \"COIL COOLING DX SINGLE SPEED 5 16KBTU/HR 14.0SEER\" - Full load outlet air dry-bulb temperature < 2C. This indicates the possibility of coil frost/freeze. Outlet temperature = -0.89 C.\n   **   ~~~   **  ...Occurrence info = RUN PERIOD 1, 01/02 06:03 - 06:05\n   **   ~~~   ** ... Possible reasons for low outlet air dry-bulb temperatures are: This DX coil\n   **   ~~~   **    1) may have a low inlet air dry-bulb temperature. Inlet air temperature = 12.730 C.\n   **   ~~~   **    2) may have a low air flow rate per watt of cooling capacity. Check inputs.\n   **   ~~~   **    3) is used as part of a HX assisted cooling coil which uses a high sensible effectiveness. Check inputs.\n   ** Warning ** CalcDoe2DXCoil: Coil:Cooling:DX:SingleSpeed \"COIL COOLING DX SINGLE SPEED 4 22KBTU/HR 14.0SEER\" - Air-cooled condenser inlet dry-bulb temperature below 0 C. Outdoor dry-bulb temperature = -10.53\n   **   ~~~   **  ... Occurrence info = RUN PERIOD 1, 01/02 06:03 - 06:05\n   **   ~~~   ** ... Operation at low ambient temperatures may require special performance curves.\n   ** Warning ** CalcDoe2DXCoil: Coil:Cooling:DX:SingleSpeed \"COIL COOLING DX SINGLE SPEED 2 18KBTU/HR 14.0SEER\" - Air-cooled condenser inlet dry-bulb temperature below 0 C. Outdoor dry-bulb temperature = -10.53\n   **   ~~~   **  ... Occurrence info = RUN PERIOD 1, 01/02 06:03 - 06:05\n   **   ~~~   ** ... Operation at low ambient temperatures may require special performance curves.\n   ** Warning ** CalcDoe2DXCoil: Coil:Cooling:DX:SingleSpeed \"COIL COOLING DX SINGLE SPEED 1 15KBTU/HR 14.0SEER\" - Air-cooled condenser inlet dry-bulb temperature below 0 C. Outdoor dry-bulb temperature = -10.53\n   **   ~~~   **  ... Occurrence info = RUN PERIOD 1, 01/02 06:03 - 06:05\n   **   ~~~   ** ... Operation at low ambient temperatures may require special performance curves.\n   ** Warning ** CalcDoe2DXCoil: Coil:Cooling:DX:SingleSpeed \"COIL COOLING DX SINGLE SPEED 1 15KBTU/HR 14.0SEER\" - Full load outlet air dry-bulb temperature < 2C. This indicates the possibility of coil frost/freeze. Outlet temperature = 0.79 C.\n   **   ~~~   **  ...Occurrence info = RUN PERIOD 1, 01/02 06:03 - 06:05\n   **   ~~~   ** ... Possible reasons for low outlet air dry-bulb temperatures are: This DX coil\n   **   ~~~   **    1) may have a low inlet air dry-bulb temperature. Inlet air temperature = 14.257 C.\n   **   ~~~   **    2) may have a low air flow rate per watt of cooling capacity. Check inputs.\n   **   ~~~   **    3) is used as part of a HX assisted cooling coil which uses a high sensible effectiveness. Check inputs.\n   ** Warning ** CalcDoe2DXCoil: Coil:Cooling:DX:SingleSpeed \"COIL COOLING DX SINGLE SPEED 3 19KBTU/HR 14.0SEER\" - Air-cooled condenser inlet dry-bulb temperature below 0 C. Outdoor dry-bulb temperature = -10.53\n   **   ~~~   **  ... Occurrence info = RUN PERIOD 1, 01/02 06:03 - 06:05\n   **   ~~~   ** ... Operation at low ambient temperatures may require special performance curves.\n   ** Warning ** CalcDoe2DXCoil: Coil:Cooling:DX:SingleSpeed \"COIL COOLING DX SINGLE SPEED 3 19KBTU/HR 14.0SEER\" - Full load outlet air dry-bulb temperature < 2C. This indicates the possibility of coil frost/freeze. Outlet temperature = 1.84 C.\n   **   ~~~   **  ...Occurrence info = RUN PERIOD 1, 01/02 21:30 - 21:34\n   **   ~~~   ** ... Possible reasons for low outlet air dry-bulb temperatures are: This DX coil\n   **   ~~~   **    1) may have a low inlet air dry-bulb temperature. Inlet air temperature = 15.292 C.\n   **   ~~~   **    2) may have a low air flow rate per watt of cooling capacity. Check inputs.\n   **   ~~~   **    3) is used as part of a HX assisted cooling coil which uses a high sensible effectiveness. Check inputs.\n   ** Warning ** CalcDoe2DXCoil: Coil:Cooling:DX:SingleSpeed \"COIL COOLING DX SINGLE SPEED 2 18KBTU/HR 14.0SEER\" - Full load outlet air dry-bulb temperature < 2C. This indicates the possibility of coil frost/freeze. Outlet temperature = 1.54 C.\n   **   ~~~   **  ...Occurrence info = RUN PERIOD 1, 01/03 21:15 - 21:18\n   **   ~~~   ** ... Possible reasons for low outlet air dry-bulb temperatures are: This DX coil\n   **   ~~~   **    1) may have a low inlet air dry-bulb temperature. Inlet air temperature = 15.000 C.\n   **   ~~~   **    2) may have a low air flow rate per watt of cooling capacity. Check inputs.\n   **   ~~~   **    3) is used as part of a HX assisted cooling coil which uses a high sensible effectiveness. Check inputs.\n   ************* Simulation Error Summary *************\n   ************* There are 9 unused schedules in input.\n   ************* There are 9 unused week schedules in input.\n   ************* There are 14 unused day schedules in input.\n   ************* Use Output:Diagnostics,DisplayUnusedSchedules; to see them.\n   *************\n   ************* ===== Recurring Error Summary =====\n   ************* The following recurring error messages occurred.\n   *************\n   *************  ** Warning ** CalcDoe2DXCoil: Coil:Cooling:DX:SingleSpeed=\"COIL COOLING DX SINGLE SPEED 5 16KBTU/HR 14.0SEER\" - Low condenser dry-bulb temperature error continues...\n   *************  **   ~~~   **   This error occurred 396 total times;\n   *************  **   ~~~   **   during Warmup 0 times;\n   *************  **   ~~~   **   during Sizing 0 times.\n   *************  **   ~~~   **   Max=-5.000000E-002 [C]  Min=-17.975 [C]\n   *************\n   *************  ** Warning ** CalcDoe2DXCoil: Coil:Cooling:DX:SingleSpeed=\"COIL COOLING DX SINGLE SPEED 5 16KBTU/HR 14.0SEER\" - Full load outlet temperature indicates a possibility of frost/freeze error continues. Outlet air temperature statistics follow:\n   *************  **   ~~~   **   This error occurred 343 total times;\n   *************  **   ~~~   **   during Warmup 0 times;\n   *************  **   ~~~   **   during Sizing 0 times.\n   *************  **   ~~~   **   Max=1.996819  Min=-1.919851\n   *************\n   *************  ** Warning ** CalcDoe2DXCoil: Coil:Cooling:DX:SingleSpeed=\"COIL COOLING DX SINGLE SPEED 4 22KBTU/HR 14.0SEER\" - Low condenser dry-bulb temperature error continues...\n   *************  **   ~~~   **   This error occurred 1020 total times;\n   *************  **   ~~~   **   during Warmup 0 times;\n   *************  **   ~~~   **   during Sizing 0 times.\n   *************  **   ~~~   **   Max=-2.500000E-002 [C]  Min=-34.675 [C]\n   *************\n   *************  ** Warning ** CalcDoe2DXCoil: Coil:Cooling:DX:SingleSpeed=\"COIL COOLING DX SINGLE SPEED 2 18KBTU/HR 14.0SEER\" - Low condenser dry-bulb temperature error continues...\n   *************  **   ~~~   **   This error occurred 887 total times;\n   *************  **   ~~~   **   during Warmup 0 times;\n   *************  **   ~~~   **   during Sizing 0 times.\n   *************  **   ~~~   **   Max=-2.500000E-002 [C]  Min=-33.4 [C]\n   *************\n   *************  ** Warning ** CalcDoe2DXCoil: Coil:Cooling:DX:SingleSpeed=\"COIL COOLING DX SINGLE SPEED 1 15KBTU/HR 14.0SEER\" - Low condenser dry-bulb temperature error continues...\n   *************  **   ~~~   **   This error occurred 424 total times;\n   *************  **   ~~~   **   during Warmup 0 times;\n   *************  **   ~~~   **   during Sizing 0 times.\n   *************  **   ~~~   **   Max=-5.000000E-002 [C]  Min=-23.75 [C]\n   *************\n   *************  ** Warning ** CalcDoe2DXCoil: Coil:Cooling:DX:SingleSpeed=\"COIL COOLING DX SINGLE SPEED 1 15KBTU/HR 14.0SEER\" - Full load outlet temperature indicates a possibility of frost/freeze error continues. Outlet air temperature statistics follow:\n   *************  **   ~~~   **   This error occurred 238 total times;\n   *************  **   ~~~   **   during Warmup 0 times;\n   *************  **   ~~~   **   during Sizing 0 times.\n   *************  **   ~~~   **   Max=1.988514  Min=-1.721842\n   *************\n   *************  ** Warning ** CalcDoe2DXCoil: Coil:Cooling:DX:SingleSpeed=\"COIL COOLING DX SINGLE SPEED 3 19KBTU/HR 14.0SEER\" - Low condenser dry-bulb temperature error continues...\n   *************  **   ~~~   **   This error occurred 830 total times;\n   *************  **   ~~~   **   during Warmup 0 times;\n   *************  **   ~~~   **   during Sizing 0 times.\n   *************  **   ~~~   **   Max=-1.387779E-017 [C]  Min=-33.4 [C]\n   *************\n   *************  ** Warning ** CalcDoe2DXCoil: Coil:Cooling:DX:SingleSpeed=\"COIL COOLING DX SINGLE SPEED 3 19KBTU/HR 14.0SEER\" - Full load outlet temperature indicates a possibility of frost/freeze error continues. Outlet air temperature statistics follow:\n   *************  **   ~~~   **   This error occurred 16 total times;\n   *************  **   ~~~   **   during Warmup 0 times;\n   *************  **   ~~~   **   during Sizing 0 times.\n   *************  **   ~~~   **   Max=1.975792  Min=1.29772\n   *************\n   *************  ** Warning ** CalcDoe2DXCoil: Coil:Cooling:DX:SingleSpeed=\"COIL COOLING DX SINGLE SPEED 2 18KBTU/HR 14.0SEER\" - Full load outlet temperature indicates a possibility of frost/freeze error continues. Outlet air temperature statistics follow:\n   *************  **   ~~~   **   This error occurred 24 total times;\n   *************  **   ~~~   **   during Warmup 0 times;\n   *************  **   ~~~   **   during Sizing 0 times.\n   *************  **   ~~~   **   Max=1.992248  Min=1.029834\n   *************\n   *************\n   ************* ===== Final Error Summary =====\n   ************* The following error categories occurred.  Consider correcting or noting.\n   ************* Nominally Unused Constructions\n   ************* ..The nominally unused constructions warning is provided to alert you to potential conditions that can cause\n   ************* ..extra time during simulation. Each construction is calculated by the algorithm indicated in the HeatBalanceAlgorithm\n   ************* ..object. You may remove the constructions indicated (when you use the DisplayExtraWarnings option).\n   *************\n   ************* EnergyPlus Warmup Error Summary. During Warmup: 0 Warning; 0 Severe Errors.\n   ************* EnergyPlus Sizing Error Summary. During Sizing: 39 Warning; 0 Severe Errors.\n   ************* EnergyPlus Completed Successfully-- 4232 Warning; 0 Severe Errors; Elapsed Time=00hr 00min 41.97sec\n",
   "file_format_version" : "0.0.1",
   "file_paths" : [ "../weather", "../seeds", "../seed" ],
   "hash" : "AAB18D17",
   "measure_paths" : [ "../measures" ],
   "name" : "LHS Autogenerated 227",
   "osa_id" : "4fef0e0f-5396-4c55-a6e1-2cd6803db3ab",
   "osd_id" : "ffd39493-1e65-4d12-9712-e3f4950f9537",
   "run_directory" : "./run",
   "seed_file" : "seed.osm",
   "started_at" : "20170710T183045Z",
   "steps" : [
      {
         "arguments" : {
            "__SKIP__" : false,
            "building_type" : "SmallOffice",
            "climate_zone" : "NECB HDD Method",
            "epw_file" : "CAN_SK_North.Battleford.718760_CWEC.epw",
            "template" : "NECB 2011"
         },
         "measure_dir_name" : "create_prototype_building",
         "name" : "create_prototype_building",
         "result" : {
            "completed_at" : "20170710T183135Z",
            "measure_class_name" : "CreatePrototypeBuilding",
            "measure_display_name" : "Create Prototype Building",
            "measure_name" : "create_prototype_building",
            "measure_taxonomy" : "Whole Building.Space Types",
            "measure_type" : "ModelMeasure",
            "measure_uid" : "ae90fsd7-a651-467a-bc8d-29d310b0f937",
            "measure_version_id" : "c6ec5c18-5595-459f-a082-09a19c8c869c",
            "measure_version_modified" : "20170519T182315Z",
            "measure_xml_checksum" : "057E8D9D",
            "started_at" : "20170710T183047Z",
            "stderr" : "",
            "stdout" : "[OpenStudio.Measure] <0> OSArgumentVector is deprecated, use OpenStudio::Measure::OSArgumentVector instead.\n[openstudio.EpwFile] <0> Successive data points (1988-Jan-31 to 1974-Feb-01, ending on line 753) are greater than 1 day apart in EPW file '/usr/local/bundle/bundler/gems/openstudio-standards-f448df66933d/openstudio-standards/data/weather/CAN_SK_North.Battleford.718760_CWEC.epw'. Data will be treated as typical (TMY)\n[openstudio.setFileExtension] <0> Path p, '/usr/local/bundle/bundler/gems/openstudio-standards-f448df66933d/openstudio-standards/data/weather/CAN_SK_North.Battleford.718760_CWEC.ddy', has an unexpected file extension. Was expecting 'idf'.\n[openstudio.setFileExtension] <0> Path p, '/usr/local/bundle/bundler/gems/openstudio-standards-f448df66933d/openstudio-standards/data/weather/CAN_SK_North.Battleford.718760_CWEC.ddy', has an unexpected file extension. Was expecting 'idf'.\n[openstudio.EpwFile] <0> Successive data points (1988-Jan-31 to 1974-Feb-01, ending on line 753) are greater than 1 day apart in EPW file '/usr/local/bundle/bundler/gems/openstudio-standards-f448df66933d/openstudio-standards/data/weather/CAN_SK_North.Battleford.718760_CWEC.epw'. Data will be treated as typical (TMY)\n[openstudio.weather.Model] <0> Could not find ground temperatures; will use generic temperatures, which will skew results.\n[openstudio.setFileExtension] <0> Path p, '/usr/local/bundle/bundler/gems/openstudio-standards-f448df66933d/openstudio-standards/data/weather/CAN_SK_North.Battleford.718760_CWEC.ddy', has an unexpected file extension. Was expecting 'idf'.\n[openstudio.EpwFile] <0> Successive data points (1988-Jan-31 to 1974-Feb-01, ending on line 753) are greater than 1 day apart in EPW file '/usr/local/bundle/bundler/gems/openstudio-standards-f448df66933d/openstudio-standards/data/weather/CAN_SK_North.Battleford.718760_CWEC.epw'. Data will be treated as typical (TMY)\n[openstudio.setFileExtension] <0> Path p, '/usr/local/bundle/bundler/gems/openstudio-standards-f448df66933d/openstudio-standards/data/weather/CAN_SK_North.Battleford.718760_CWEC.ddy', has an unexpected file extension. Was expecting 'idf'.\n[openstudio.setFileExtension] <0> Path p, '/usr/local/bundle/bundler/gems/openstudio-standards-f448df66933d/openstudio-standards/data/weather/CAN_SK_North.Battleford.718760_CWEC.ddy', has an unexpected file extension. Was expecting 'idf'.\n[openstudio.EpwFile] <0> Successive data points (1988-Jan-31 to 1974-Feb-01, ending on line 753) are greater than 1 day apart in EPW file '/usr/local/bundle/bundler/gems/openstudio-standards-f448df66933d/openstudio-standards/data/weather/CAN_SK_North.Battleford.718760_CWEC.epw'. Data will be treated as typical (TMY)\n[openstudio.setFileExtension] <0> Path p, '/usr/local/bundle/bundler/gems/openstudio-standards-f448df66933d/openstudio-standards/data/weather/CAN_SK_North.Battleford.718760_CWEC.ddy', has an unexpected file extension. Was expecting 'idf'.\n[openstudio.setFileExtension] <0> Path p, '/usr/local/bundle/bundler/gems/openstudio-standards-f448df66933d/openstudio-standards/data/weather/CAN_SK_North.Battleford.718760_CWEC.ddy', has an unexpected file extension. Was expecting 'idf'.\n[utilities.idf.WorkspaceObject] <0> Object of type 'Schedule:Constant' and named 'Always Off Discrete', points to an object named OnOff 1 from field 1, but that object cannot be located.\n[utilities.idf.WorkspaceObject] <0> Object of type 'Schedule:Constant' and named 'Always On Continuous', points to an object named Fractional 1 from field 1, but that object cannot be located.\n[utilities.idf.WorkspaceObject] <0> Object of type 'Schedule:Constant' and named 'Always Off Discrete', points to an object named OnOff 1 from field 1, but that object cannot be located.\n[utilities.idf.WorkspaceObject] <0> Object of type 'Schedule:Constant' and named 'Always On Continuous', points to an object named Fractional 1 from field 1, but that object cannot be located.\n[openstudio.standards.Fan] <0> For Fan Constant Volume 1, there is no greater nominal HP.  Use the efficiency of the largest motor category.\n[openstudio.standards.Fan] <0> For Fan Constant Volume 2, there is no greater nominal HP.  Use the efficiency of the largest motor category.\n[openstudio.standards.Fan] <0> For Fan Constant Volume 3, there is no greater nominal HP.  Use the efficiency of the largest motor category.\n[openstudio.standards.Fan] <0> For Fan Constant Volume 4, there is no greater nominal HP.  Use the efficiency of the largest motor category.\n[openstudio.standards.Fan] <0> For Fan Constant Volume 5, there is no greater nominal HP.  Use the efficiency of the largest motor category.\n[openstudio.EpwFile] <0> Successive data points (1988-Jan-31 to 1974-Feb-01, ending on line 753) are greater than 1 day apart in EPW file '/usr/local/bundle/bundler/gems/openstudio-standards-f448df66933d/openstudio-standards/data/weather/CAN_SK_North.Battleford.718760_CWEC.epw'. Data will be treated as typical (TMY)\n[openstudio.setFileExtension] <0> Path p, '/usr/local/bundle/bundler/gems/openstudio-standards-f448df66933d/openstudio-standards/data/weather/CAN_SK_North.Battleford.718760_CWEC.ddy', has an unexpected file extension. Was expecting 'idf'.\n[openstudio.setFileExtension] <0> Path p, '/usr/local/bundle/bundler/gems/openstudio-standards-f448df66933d/openstudio-standards/data/weather/CAN_SK_North.Battleford.718760_CWEC.ddy', has an unexpected file extension. Was expecting 'idf'.\n[openstudio.EpwFile] <0> Successive data points (1988-Jan-31 to 1974-Feb-01, ending on line 753) are greater than 1 day apart in EPW file '/usr/local/bundle/bundler/gems/openstudio-standards-f448df66933d/openstudio-standards/data/weather/CAN_SK_North.Battleford.718760_CWEC.epw'. Data will be treated as typical (TMY)\n[openstudio.setFileExtension] <0> Path p, '/usr/local/bundle/bundler/gems/openstudio-standards-f448df66933d/openstudio-standards/data/weather/CAN_SK_North.Battleford.718760_CWEC.ddy', has an unexpected file extension. Was expecting 'idf'.\n[openstudio.setFileExtension] <0> Path p, '/usr/local/bundle/bundler/gems/openstudio-standards-f448df66933d/openstudio-standards/data/weather/CAN_SK_North.Battleford.718760_CWEC.ddy', has an unexpected file extension. Was expecting 'idf'.\n[openstudio.EpwFile] <0> Successive data points (1988-Jan-31 to 1974-Feb-01, ending on line 753) are greater than 1 day apart in EPW file '/usr/local/bundle/bundler/gems/openstudio-standards-f448df66933d/openstudio-standards/data/weather/CAN_SK_North.Battleford.718760_CWEC.epw'. Data will be treated as typical (TMY)\n[openstudio.setFileExtension] <0> Path p, '/usr/local/bundle/bundler/gems/openstudio-standards-f448df66933d/openstudio-standards/data/weather/CAN_SK_North.Battleford.718760_CWEC.ddy', has an unexpected file extension. Was expecting 'idf'.\n[openstudio.setFileExtension] <0> Path p, '/usr/local/bundle/bundler/gems/openstudio-standards-f448df66933d/openstudio-standards/data/weather/CAN_SK_North.Battleford.718760_CWEC.ddy', has an unexpected file extension. Was expecting 'idf'.\n[openstudio.EpwFile] <0> Successive data points (1988-Jan-31 to 1974-Feb-01, ending on line 753) are greater than 1 day apart in EPW file '/usr/local/bundle/bundler/gems/openstudio-standards-f448df66933d/openstudio-standards/data/weather/CAN_SK_North.Battleford.718760_CWEC.epw'. Data will be treated as typical (TMY)\n[openstudio.setFileExtension] <0> Path p, '/usr/local/bundle/bundler/gems/openstudio-standards-f448df66933d/openstudio-standards/data/weather/CAN_SK_North.Battleford.718760_CWEC.ddy', has an unexpected file extension. Was expecting 'idf'.\n[openstudio.setFileExtension] <0> Path p, '/usr/local/bundle/bundler/gems/openstudio-standards-f448df66933d/openstudio-standards/data/weather/CAN_SK_North.Battleford.718760_CWEC.ddy', has an unexpected file extension. Was expecting 'idf'.\n[openstudio.EpwFile] <0> Successive data points (1988-Jan-31 to 1974-Feb-01, ending on line 753) are greater than 1 day apart in EPW file '/usr/local/bundle/bundler/gems/openstudio-standards-f448df66933d/openstudio-standards/data/weather/CAN_SK_North.Battleford.718760_CWEC.epw'. Data will be treated as typical (TMY)\n[openstudio.setFileExtension] <0> Path p, '/usr/local/bundle/bundler/gems/openstudio-standards-f448df66933d/openstudio-standards/data/weather/CAN_SK_North.Battleford.718760_CWEC.ddy', has an unexpected file extension. Was expecting 'idf'.\n[openstudio.setFileExtension] <0> Path p, '/usr/local/bundle/bundler/gems/openstudio-standards-f448df66933d/openstudio-standards/data/weather/CAN_SK_North.Battleford.718760_CWEC.ddy', has an unexpected file extension. Was expecting 'idf'.\n[openstudio.standards.Fan] <0> For Fan Constant Volume 1, there is no greater nominal HP.  Use the efficiency of the largest motor category.\n[openstudio.standards.Fan] <0> For Fan Constant Volume 2, there is no greater nominal HP.  Use the efficiency of the largest motor category.\n[openstudio.standards.Fan] <0> For Fan Constant Volume 3, there is no greater nominal HP.  Use the efficiency of the largest motor category.\n[openstudio.standards.Fan] <0> For Fan Constant Volume 4, there is no greater nominal HP.  Use the efficiency of the largest motor category.\n[openstudio.standards.Fan] <0> For Fan Constant Volume 5, there is no greater nominal HP.  Use the efficiency of the largest motor category.\n",
            "step_errors" : [],
            "step_files" : [],
            "step_info" : [
               "Started adding geometry",
               "Finished adding geometry",
               "Started adding weather file for climate zone: NECB HDD Method.",
               "Template =",
               "Setting Attic to Space Function.- undefined -",
               "Setting Core_ZN to Space Function.Office - enclosed",
               "Setting Perimeter_ZN_1 to Space Function.Office - enclosed",
               "Setting Perimeter_ZN_2 to Space Function.Office - enclosed",
               "Setting Perimeter_ZN_3 to Space Function.Office - enclosed",
               "Setting Perimeter_ZN_4 to Space Function.Office - enclosed",
               "Started applying space types (loads)",
               "Space Function - undefined - had no ventilation specification, one has been created.",
               "Space Function - undefined - had no infiltration objects, one has been created.",
               "Space Function - undefined - set infiltration to 0.0 per ft^2 exterior surface area.",
               "Space Function - undefined - set infiltration schedule to Always On.",
               "Space Function Office - enclosed had no people, one has been created.",
               "Space Function Office - enclosed set occupancy to 4.65 people/1000 ft^2.",
               "Space Function Office - enclosed had no lights, one has been created.",
               "Space Function Office - enclosed set LPD to 1.105536975 W/ft^2.",
               "Space Function Office - enclosed had no electric equipment, one has been created.",
               "Space Function Office - enclosed set electric EPD to 0.696767001 W/ft^2.",
               "Space Function Office - enclosed had no ventilation specification, one has been created.",
               "Space Function Office - enclosed set ventilation per area to 0.085 cfm/ft^2.",
               "Space Function Office - enclosed had no infiltration objects, one has been created.",
               "Space Function Office - enclosed set infiltration to 0.0 per ft^2 exterior surface area.",
               "Space Function Office - enclosed set occupancy schedule to NECB-A-Occupancy.",
               "Space Function Office - enclosed set occupant activity schedule to NECB-Activity.",
               "Space Function Office - enclosed set lighting schedule to NECB-A-Lighting.",
               "Space Function Office - enclosed set electric equipment schedule to NECB-A-Electric-Equipment.",
               "Space Function Office - enclosed set infiltration schedule to Always On.",
               "Space Function Office - enclosed set heating setpoint schedule to NECB-A-Thermostat Setpoint-Heating.",
               "Space Function Office - enclosed set cooling setpoint schedule to NECB-A-Thermostat Setpoint-Cooling.",
               "Finished applying space types (loads)",
               "For NECB 2011, no exterior wall area was found, no infiltration will be added.",
               "Started applying constructions",
               "Adding construction set: NECB 2011-NECB HDD Method-Office--is_residentialNo",
               "Adding construction Typical Insulated Exterior Mass Floor R-15.63.",
               "Adding construction Typical Insulated Exterior Mass Wall R-12.5.",
               "Adding construction Typical Insulated Metal Building Roof R-20.41.",
               "Adding construction Typical Interior Floor.",
               "Adding construction Typical Interior Wall.",
               "Adding construction Typical Interior Ceiling.",
               "Adding construction Typical Insulated Carpeted 6in Slab Floor.",
               "Adding construction U 0.55 SHGC 0.31 Dbl Ref-D Tint 6mm/6mm Air.",
               "Adding construction Typical Insulated Metal Door R-1.43.",
               "Adding construction U 0.35 SHGC 0.35 Dbl LoE (e2-.1) Tint 6mm/13mm Air.",
               "Adding construction Typical Overhead Door R-2.0.",
               "Adding construction U 0.48 SHGC 0.40 Dbl Ref-D Clr 6mm/13mm.",
               "Adding construction Typical Interior Window.",
               "Adding construction Typical Interior Door.",
               "Adding construction Typical Interior Partition.",
               "Finished applying constructions",
               "WWR NonRes = 0%; window = 0 ft2, wall = 0 ft2.",
               "WWR Res = 0%; window = 0 ft2, wall = 0 ft2.",
               "WWR Semiheated = 0%; window = 0 ft2, wall = 0 ft2.",
               "The skylight to roof ratios (SRRs) are: NonRes: 0%, Res: 0%.",
               "Started creating thermal zones",
               "Finished creating thermal zones",
               "Running simulation /mnt/openstudio/analysis_4fef0e0f-5396-4c55-a6e1-2cd6803db3ab/data_point_ffd39493-1e65-4d12-9712-e3f4950f9537/run/000_create_prototype_building/output/SmallOffice-NECB 2011-NECB HDD Method-CAN_SK_North.Battleford.718760_CWEC.epw/SR0.",
               "Finished run.",
               "Started Adding HVAC",
               "Finished adding HVAC",
               "Started Adding Service Water Heating",
               "Adding service water loop.",
               "Adding water heater.",
               "Template =",
               "Finished adding Service Water Heating",
               "Set sizing factors to 1.3 for heating and 1.3 for cooling.",
               "Running simulation /mnt/openstudio/analysis_4fef0e0f-5396-4c55-a6e1-2cd6803db3ab/data_point_ffd39493-1e65-4d12-9712-e3f4950f9537/run/000_create_prototype_building/output/SmallOffice-NECB 2011-NECB HDD Method-CAN_SK_North.Battleford.718760_CWEC.epw/SR1.",
               "Finished run.",
               "Started applying multizone vav OA sizing.",
               "Finished applying multizone vav OA sizing.",
               "Started applying prototype HVAC assumptions.",
               "For Fan Constant Volume 1: allowed_hp = 1.01HP; motor eff = 61.5%; total fan eff = 40% based on 557 cfm.",
               "For Fan Constant Volume 2: allowed_hp = 1.01HP; motor eff = 61.5%; total fan eff = 40% based on 690 cfm.",
               "For Fan Constant Volume 3: allowed_hp = 1.01HP; motor eff = 61.5%; total fan eff = 40% based on 724 cfm.",
               "For Fan Constant Volume 4: allowed_hp = 1.01HP; motor eff = 61.5%; total fan eff = 40% based on 815 cfm.",
               "For Fan Constant Volume 5: allowed_hp = 1.01HP; motor eff = 61.5%; total fan eff = 40% based on 601 cfm.",
               "Sp-Perimeter_ZN_3 Sys-3 Flr-1 Sch-A HPlcmt-north ZN NECB System 3 PSZ does not require an economizer because the total cooling capacity of 14839 Btu/hr is less than the minimum capacity of 68243 Btu/hr.",
               "Sp-Perimeter_ZN_4 Sys-3 Flr-1 Sch-A HPlcmt-west ZN NECB System 3 PSZ does not require an economizer because the total cooling capacity of 19309 Btu/hr is less than the minimum capacity of 68243 Btu/hr.",
               "Sp-Perimeter_ZN_2 Sys-3 Flr-1 Sch-A HPlcmt-east ZN NECB System 3 PSZ does not require an economizer because the total cooling capacity of 18381 Btu/hr is less than the minimum capacity of 68243 Btu/hr.",
               "Sp-Core_ZN Sys-3 Flr-1 Sch-A HPlcmt-core ZN NECB System 3 PSZ does not require an economizer because the total cooling capacity of 16022 Btu/hr is less than the minimum capacity of 68243 Btu/hr.",
               "Sp-Perimeter_ZN_1 Sys-3 Flr-1 Sch-A HPlcmt-south ZN NECB System 3 PSZ does not require an economizer because the total cooling capacity of 21728 Btu/hr is less than the minimum capacity of 68243 Btu/hr.",
               "Finished applying prototype HVAC assumptions.",
               "Started applying HVAC efficiency standards.",
               "For Sp-Core_ZN Sys-3 Flr-1 Sch-A HPlcmt-core ZN NECB System 3 PSZ, ERV not required based on 0% OA flow, design supply air flow of 601cfm, and climate zone NECB HDD Method.",
               "For Sp-Core_ZN Sys-3 Flr-1 Sch-A HPlcmt-core ZN NECB System 3 PSZ, ERV not required based on exhaust heat content.",
               "For NECB 2011 NECB HDD Method:  Sp-Core_ZN Sys-3 Flr-1 Sch-A HPlcmt-core ZN NECB System 3 PSZ: DCV is not required for any system.",
               "For Sp-Core_ZN Sys-3 Flr-1 Sch-A HPlcmt-core ZN NECB System 3 PSZ: Unoccupied fan shutoff not required because system fan HP of 0.61 HP is less than the minimum threshold of 0.75 HP.",
               "For Sp-Core_ZN Sys-3 Flr-1 Sch-A HPlcmt-core ZN NECB System 3 PSZ: Setting motorized OA damper schedule to Always On Discrete.",
               "For Sp-Perimeter_ZN_1 Sys-3 Flr-1 Sch-A HPlcmt-south ZN NECB System 3 PSZ, ERV not required based on 0% OA flow, design supply air flow of 815cfm, and climate zone NECB HDD Method.",
               "For Sp-Perimeter_ZN_1 Sys-3 Flr-1 Sch-A HPlcmt-south ZN NECB System 3 PSZ, ERV not required based on exhaust heat content.",
               "For NECB 2011 NECB HDD Method:  Sp-Perimeter_ZN_1 Sys-3 Flr-1 Sch-A HPlcmt-south ZN NECB System 3 PSZ: DCV is not required for any system.",
               "For Sp-Perimeter_ZN_1 Sys-3 Flr-1 Sch-A HPlcmt-south ZN NECB System 3 PSZ: Annual occupied hours = 2860 hr/yr, assuming a 0.15 occupancy threshold.  This schedule will be used as the HVAC operation schedule.",
               "For Sp-Perimeter_ZN_1 Sys-3 Flr-1 Sch-A HPlcmt-south ZN NECB System 3 PSZ: Setting motorized OA damper schedule to Sp-Perimeter_ZN_1 Sys-3 Flr-1 Sch-A HPlcmt-south ZN NECB System 3 PSZ Occ Sch.",
               "For Sp-Perimeter_ZN_2 Sys-3 Flr-1 Sch-A HPlcmt-east ZN NECB System 3 PSZ, ERV not required based on 0% OA flow, design supply air flow of 690cfm, and climate zone NECB HDD Method.",
               "For Sp-Perimeter_ZN_2 Sys-3 Flr-1 Sch-A HPlcmt-east ZN NECB System 3 PSZ, ERV not required based on exhaust heat content.",
               "For NECB 2011 NECB HDD Method:  Sp-Perimeter_ZN_2 Sys-3 Flr-1 Sch-A HPlcmt-east ZN NECB System 3 PSZ: DCV is not required for any system.",
               "For Sp-Perimeter_ZN_2 Sys-3 Flr-1 Sch-A HPlcmt-east ZN NECB System 3 PSZ: Unoccupied fan shutoff not required because system fan HP of 0.7 HP is less than the minimum threshold of 0.75 HP.",
               "For Sp-Perimeter_ZN_2 Sys-3 Flr-1 Sch-A HPlcmt-east ZN NECB System 3 PSZ: Setting motorized OA damper schedule to Always On Discrete.",
               "For Sp-Perimeter_ZN_3 Sys-3 Flr-1 Sch-A HPlcmt-north ZN NECB System 3 PSZ, ERV not required based on 0% OA flow, design supply air flow of 557cfm, and climate zone NECB HDD Method.",
               "For Sp-Perimeter_ZN_3 Sys-3 Flr-1 Sch-A HPlcmt-north ZN NECB System 3 PSZ, ERV not required based on exhaust heat content.",
               "For NECB 2011 NECB HDD Method:  Sp-Perimeter_ZN_3 Sys-3 Flr-1 Sch-A HPlcmt-north ZN NECB System 3 PSZ: DCV is not required for any system.",
               "For Sp-Perimeter_ZN_3 Sys-3 Flr-1 Sch-A HPlcmt-north ZN NECB System 3 PSZ: Unoccupied fan shutoff not required because system fan HP of 0.56 HP is less than the minimum threshold of 0.75 HP.",
               "For Sp-Perimeter_ZN_3 Sys-3 Flr-1 Sch-A HPlcmt-north ZN NECB System 3 PSZ: Setting motorized OA damper schedule to Always On Discrete.",
               "For Sp-Perimeter_ZN_4 Sys-3 Flr-1 Sch-A HPlcmt-west ZN NECB System 3 PSZ, ERV not required based on 0% OA flow, design supply air flow of 724cfm, and climate zone NECB HDD Method.",
               "For Sp-Perimeter_ZN_4 Sys-3 Flr-1 Sch-A HPlcmt-west ZN NECB System 3 PSZ, ERV not required based on exhaust heat content.",
               "For NECB 2011 NECB HDD Method:  Sp-Perimeter_ZN_4 Sys-3 Flr-1 Sch-A HPlcmt-west ZN NECB System 3 PSZ: DCV is not required for any system.",
               "For Sp-Perimeter_ZN_4 Sys-3 Flr-1 Sch-A HPlcmt-west ZN NECB System 3 PSZ: Unoccupied fan shutoff not required because system fan HP of 0.73 HP is less than the minimum threshold of 0.75 HP.",
               "For Sp-Perimeter_ZN_4 Sys-3 Flr-1 Sch-A HPlcmt-west ZN NECB System 3 PSZ: Setting motorized OA damper schedule to Always On Discrete.",
               "For Fan Constant Volume 1: motor nameplate = 0.3467596044875031HP, motor eff = 61.5%.",
               "For Fan Constant Volume 2: motor nameplate = 0.42950477117898HP, motor eff = 61.5%.",
               "For Fan Constant Volume 3: motor nameplate = 0.45119023419670135HP, motor eff = 61.5%.",
               "For Fan Constant Volume 4: motor nameplate = 0.5077278027010383HP, motor eff = 61.5%.",
               "For Fan Constant Volume 5: motor nameplate = 0.3743815642048442HP, motor eff = 61.5%.",
               "For Service Water Loop Pump: brake hp = 0.0HP, motor nameplate = 0.1HP, motor eff = 70.0%.",
               "For Pump Variable Speed 1: brake hp = 0.12HP, motor nameplate = 1.0HP, motor eff = 85.5%.",
               "For NECB 2011: Coil Cooling DX Single Speed 1: AirCooled All Other Single Package Capacity = 15kBtu/hr; SEER = 14.0",
               "For NECB 2011: Coil Cooling DX Single Speed 2: AirCooled All Other Single Package Capacity = 18kBtu/hr; SEER = 14.0",
               "For NECB 2011: Coil Cooling DX Single Speed 3: AirCooled All Other Single Package Capacity = 19kBtu/hr; SEER = 14.0",
               "For NECB 2011: Coil Cooling DX Single Speed 4: AirCooled All Other Single Package Capacity = 22kBtu/hr; SEER = 14.0",
               "For NECB 2011: Coil Cooling DX Single Speed 5: AirCooled All Other Single Package Capacity = 16kBtu/hr; SEER = 14.0",
               "For NECB 2011: Primary Boiler: Gas Hot Water Capacity = 89kBtu/hr; AFUE = 0.85",
               "For NECB 2011: Secondary Boiler: Gas Hot Water Capacity = 0kBtu/hr; AFUE = 0.85",
               "For NECB 2011: 40.0gal NaturalGas Water Heater - 40kBtu/hr 0.82 Therm Eff; thermal efficiency = 0.82, skin-loss UA = 6Btu/hr",
               "Finished applying HVAC efficiency standards.",
               "Started adding daylighting controls.",
               "For Attic, daylighting control not applicable because no exterior fenestration is present.",
               "For Core_ZN, daylighting control not applicable because no exterior fenestration is present.",
               "Finished adding daylighting controls.",
               "Total Time = 47sec."
            ],
            "step_result" : "Success",
            "step_values" : [
               {
                  "name" : "building_type",
                  "value" : "SmallOffice"
               },
               {
                  "name" : "template",
                  "value" : "NECB 2011"
               },
               {
                  "name" : "climate_zone",
                  "value" : "NECB HDD Method"
               },
               {
                  "name" : "epw_file",
                  "value" : "CAN_SK_North.Battleford.718760_CWEC.epw"
               }
            ],
            "step_warnings" : [
               "[openstudio.EpwFile] Successive data points (1988-Jan-31 to 1974-Feb-01, ending on line 753) are greater than 1 day apart in EPW file '/usr/local/bundle/bundler/gems/openstudio-standards-f448df66933d/openstudio-standards/data/weather/CAN_SK_North.Battleford.718760_CWEC.epw'. Data will be treated as typical (TMY)",
               "[openstudio.EpwFile] Successive data points (1988-Jan-31 to 1974-Feb-01, ending on line 753) are greater than 1 day apart in EPW file '/usr/local/bundle/bundler/gems/openstudio-standards-f448df66933d/openstudio-standards/data/weather/CAN_SK_North.Battleford.718760_CWEC.epw'. Data will be treated as typical (TMY)",
               "[openstudio.weather.Model] Could not find ground temperatures; will use generic temperatures, which will skew results.",
               "[openstudio.EpwFile] Successive data points (1988-Jan-31 to 1974-Feb-01, ending on line 753) are greater than 1 day apart in EPW file '/usr/local/bundle/bundler/gems/openstudio-standards-f448df66933d/openstudio-standards/data/weather/CAN_SK_North.Battleford.718760_CWEC.epw'. Data will be treated as typical (TMY)",
               "[openstudio.EpwFile] Successive data points (1988-Jan-31 to 1974-Feb-01, ending on line 753) are greater than 1 day apart in EPW file '/usr/local/bundle/bundler/gems/openstudio-standards-f448df66933d/openstudio-standards/data/weather/CAN_SK_North.Battleford.718760_CWEC.epw'. Data will be treated as typical (TMY)",
               "[openstudio.standards.Fan] For Fan Constant Volume 1, there is no greater nominal HP.  Use the efficiency of the largest motor category.",
               "[openstudio.standards.Fan] For Fan Constant Volume 2, there is no greater nominal HP.  Use the efficiency of the largest motor category.",
               "[openstudio.standards.Fan] For Fan Constant Volume 3, there is no greater nominal HP.  Use the efficiency of the largest motor category.",
               "[openstudio.standards.Fan] For Fan Constant Volume 4, there is no greater nominal HP.  Use the efficiency of the largest motor category.",
               "[openstudio.standards.Fan] For Fan Constant Volume 5, there is no greater nominal HP.  Use the efficiency of the largest motor category.",
               "[openstudio.EpwFile] Successive data points (1988-Jan-31 to 1974-Feb-01, ending on line 753) are greater than 1 day apart in EPW file '/usr/local/bundle/bundler/gems/openstudio-standards-f448df66933d/openstudio-standards/data/weather/CAN_SK_North.Battleford.718760_CWEC.epw'. Data will be treated as typical (TMY)",
               "[openstudio.EpwFile] Successive data points (1988-Jan-31 to 1974-Feb-01, ending on line 753) are greater than 1 day apart in EPW file '/usr/local/bundle/bundler/gems/openstudio-standards-f448df66933d/openstudio-standards/data/weather/CAN_SK_North.Battleford.718760_CWEC.epw'. Data will be treated as typical (TMY)",
               "[openstudio.EpwFile] Successive data points (1988-Jan-31 to 1974-Feb-01, ending on line 753) are greater than 1 day apart in EPW file '/usr/local/bundle/bundler/gems/openstudio-standards-f448df66933d/openstudio-standards/data/weather/CAN_SK_North.Battleford.718760_CWEC.epw'. Data will be treated as typical (TMY)",
               "[openstudio.EpwFile] Successive data points (1988-Jan-31 to 1974-Feb-01, ending on line 753) are greater than 1 day apart in EPW file '/usr/local/bundle/bundler/gems/openstudio-standards-f448df66933d/openstudio-standards/data/weather/CAN_SK_North.Battleford.718760_CWEC.epw'. Data will be treated as typical (TMY)",
               "[openstudio.EpwFile] Successive data points (1988-Jan-31 to 1974-Feb-01, ending on line 753) are greater than 1 day apart in EPW file '/usr/local/bundle/bundler/gems/openstudio-standards-f448df66933d/openstudio-standards/data/weather/CAN_SK_North.Battleford.718760_CWEC.epw'. Data will be treated as typical (TMY)",
               "[openstudio.standards.Fan] For Fan Constant Volume 1, there is no greater nominal HP.  Use the efficiency of the largest motor category.",
               "[openstudio.standards.Fan] For Fan Constant Volume 2, there is no greater nominal HP.  Use the efficiency of the largest motor category.",
               "[openstudio.standards.Fan] For Fan Constant Volume 3, there is no greater nominal HP.  Use the efficiency of the largest motor category.",
               "[openstudio.standards.Fan] For Fan Constant Volume 4, there is no greater nominal HP.  Use the efficiency of the largest motor category.",
               "[openstudio.standards.Fan] For Fan Constant Volume 5, there is no greater nominal HP.  Use the efficiency of the largest motor category."
            ]
         }
      },
      {
         "arguments" : {
            "__SKIP__" : false
         },
         "measure_dir_name" : "view_model",
         "name" : "view_model",
         "result" : {
            "completed_at" : "20170710T183135Z",
            "measure_class_name" : "ViewModel",
            "measure_display_name" : "ViewModel",
            "measure_name" : "view_model",
            "measure_taxonomy" : "Reporting.QAQC",
            "measure_type" : "ModelMeasure",
            "measure_uid" : "f4669f10-fda5-489d-8e1c-7ca3c2d40378",
            "measure_version_id" : "f4975c5f-7c25-42a2-927b-02d99b4427ef",
            "measure_version_modified" : "20170526T150340Z",
            "measure_xml_checksum" : "1E1F8B97",
            "started_at" : "20170710T183135Z",
            "stderr" : "",
            "stdout" : "[OpenStudio.Measure] <0> OSArgumentVector is deprecated, use OpenStudio::Measure::OSArgumentVector instead.\n",
            "step_errors" : [],
            "step_files" : [
               "/mnt/openstudio/analysis_4fef0e0f-5396-4c55-a6e1-2cd6803db3ab/data_point_ffd39493-1e65-4d12-9712-e3f4950f9537/run/001_view_model/report.html",
               "/mnt/openstudio/analysis_4fef0e0f-5396-4c55-a6e1-2cd6803db3ab/data_point_ffd39493-1e65-4d12-9712-e3f4950f9537/run/001_view_model/report.json"
            ],
            "step_final_condition" : "Report written to <a href='file:////mnt/openstudio/analysis_4fef0e0f-5396-4c55-a6e1-2cd6803db3ab/data_point_ffd39493-1e65-4d12-9712-e3f4950f9537/run/001_view_model/report.html'>report.html</a>.",
            "step_info" : [ "No changes made to the model." ],
            "step_result" : "NA",
            "step_values" : [
               {
                  "name" : "view_model_html_zip",
[...]
TaWzSDHmaG3qKDNlzfaAEBtXfbqVGFd90JUYV33mlRhXTTmVGFfNPpUYV10/W4lx1VW2lRhXXYtbiXHlhfHVWFdd2VuNddVl9tVYV12NX4111UX71VhXXdtfjXXVLQDVWH/UkU55Q0E11h91rFPenlCN9Ucd65Sn69VYf9QZnfI0fmH9k8ouzPmeaXbIfH6z2OSZ7u1sR9fjTrpLs3A752LjdcTjX4KZP4ra/W6H2Xa/w3riL6evtiX0NqFxv7d8NDp2Yz4OwrujWy/KNi7f94bC7u4E4F044uH7mdhHrHyj4HG3yuMNd6NZyDMaYiv0/CmY7ldPN9eumjrlocejOd3E0vyBTCdBbIkdv4Umo4faXcw0stLFONNg4sZe4CekWlHMp9vn/CIIeUvNk17zMfdHqw3KPmsPEi/oCU8QO4Rt8c98O3jhTvkFrHU25vGJH4v+SUxczPxhyrS9xf5S2A8uGPL7uz8WxoYo3gVrx5delPi1uE/NkChLN1lJ/524w8v234R10Rb05xum57hn0yDyBOCvyccqrVkUAfMAqzC40aO0oOX5Iy4Cd9vuaN69KJ/L3njh8Ynwt/a8T7M4GYfBbMpH7Mcf2T/mn99aZ5duNB9PRIBtLdfePVibdIjljscvhQ1rwv1xfMleMIf9i7WOJpMWe756RTTxhry9bW997H7aKoy3tZYEIWt/TprS/Yl9TszMXXVuV3z2z0Nm6z8gUYQbz/E+fv5kfeHJ8HZ4mHVeOcQUdf7YP+s2dVHOQ+5+KXPzV817dK8X/TVv3aFwa+EMc09JE6N1lume8NGxSLnRx7QnP5XrysWDns6iy3bZZ5E80ufZ8ywfSZPJc5VWWuLKslaiOAy+cDU72bVlLQVTd5jMttRMzS8u3arUxMJUWZTFQLI6rJQJD+3BR5RFOK8OPMlc1dZF0wk3da5fO2lWVbr+a9GcQpSdHfbHnx/Yf979+Z6dvnv/4fe3v7HX7377/Zi9Onl/ogbwMhm1+a0rpmgsDlgUJBNpf3aV+MGQpVPEiLnRMJm8eP5YAXHR9wJnKTO7HXauPriEPJ6FPpu6YcRfTgI3brtiyN9KHuXSZ+fpZ0qdWTxFWzI7b0IR8NdH0Kf6Zld6KjyV7TJ/FLks0AEd0AEd0AEd0AEd0AEd0AGdjaezrvohGIV8BDZgAzZgAzZgAzZgAzZgAzZgAzb5bNZ0kgQboXsEOqADOqADOqADOqADOqADOqADOmXoqGuApb+wZZpeYAqmYAqmYAqmYAqmYAqmYAqmYAqmYLoZTAvFFFOmmTgimIIpmIIpmIIpmIIpmIIpmIIpmIIpmG4GUy0F1pR1pqgK1mAN1mAN1mAN1mAN1mAN1mAN1mAN1mD9iKwXtEahe9MuBLu1Yi+e8NNLd8qtmN/G7WevglkYFdO4W7/zA7+a8tCNZyFn7ZdbAqMAZGeHHY1GzGUpFrvx4ksWBVecjXoFd0bXY8udTsWBIi1hvbVVcMOiWG4ch9kRMoOu5k3iwBdH/aYovhPnrgh6264/vAzC1v1hJ5oYF4Efb99wb3wZC4zzYDJSx8ieztuT41+2j7Y/XPLwKohiN2anPJ4GXgJ8HAQTzx8/28p7Xi92omHoTeOfpde82Bl51w9XS++RgyVYzBsdtobCnY+T9ruez8Mzx26xtFMOWyMvmk7cu+eeL87D2T6fBMMvP7Xk/BLQrAksvpsm94t+2fnsXrvZp7l3ipIe0nM9ZoeLs3h8fnN6PW63fljn2GG74mib5J/CSFo60OXj36dEfSPlJztHdbBr9WSnP2XKfytnT+WgOpWg9ipB3a0EtV8J6qAS1OUz9wZ78hPA9FBXztKzrf4y6m5p1INKUFcP+qSDtauBdaqB7VUDu1sNbL8a2EE1sHvVwFYTZHY1UeZUE2VONVHmVJPEnGqymGOQxtaFqUrMEEI+0gBV7Fs9UMWe1QNV7Fc9UMXZgR6o4uRAD1RxbqAHqjhq6YEqjll6oKoTA01UxRFLE1VxWqCJqjgr0ERVnBRooirOCTRRFacEmqiKMwJN1EpCS3U+oJkDKokt1dmAJmolCUt1LqCJWjZlrQmnlJgGCJ0VDVTFbtVEVexWTVTFbtVEVZwKaKIqzgU0URUnA5qoikOWJqrikKWJqjof0IVVHLR0YRVnBLqwilMCXVjFOYEurOKkQBdWcVagC6s4LdCFrSbIVCcGulmhmihTnRrowlaTxFQnB7qwZdOY+hbsMr8vZDu2CQyqvrUhM6j6PofMoOqbHjKDqr9lkBlU/ZmDzOBe3Qb36zZ4ULfBlZlSPRZrH2vs2gcbu/bRxq59uLFrH2/s2gccu/YRx659yLFrH3Oc2sccp/75Te1jjvIvVnQWKcacwp2DZaap2UZDAoOqT5HMoOpDJDOo+gzJDKqmDTKDqlmDzKBq0iAzqJozyAyqpgwyg8rTVDqLtY81ytNUOou1jzbK01Q6i7WPN8rTVDqLtY84ytNUOou1jznK01Q6i/XPb2ofc5SnqXQWKcYcrc0dZaas2V4QYuOqT7cS46oPuhLjqs+8EuOqKacS46rZpxLjqmvUKzGuusq2EuOqa3ErMa68ML4a66ore6uxrrrMvhrrqqvxq7Guumi/Guuqa/ursa66BaAa66o7Baqx/qhDnfK+g2rmNI861invYqjG+qNO6JSn7tVY153SfVLZhTnfO80Omc9vFps8072d7eh63El3aRZu51xswI54/Esw80dRu9/tMNvud1hP/OX01baE3iY07veYj0bHbszHQXh3dOtF2fbl+95Q2OWdALwLRzx8PxO7iZVvFDzuVnm84W40C3lGQ2yInj8F033r6ebaVVOnPPR4NKebWJo/kOkkiC2x47fQZPRQu4uZRla6GGcaTNzYC/yEVCuK+XT7nF8EIW+pedJrPub+aLVB2WftQeIFPeEJYoewLf6Zbwov3C+/gLXOxjw+8WPRP4mJi5k/TJm2t9hfCrvCBUN+f/fHwtgQxbtg7fjSixK/FvepGRJl6SYr6b8Td3jZ/puwLtqC/nzD9Bz3bBpEngD8NflYpTWLImAeYBUGN3qUFrQ8f8RF4G7bHc27F+Vz2RsvPD4R/tae92kWJ+MwmE35iP34I/vH/PNb6+zSjebjiQiwreXauwdrkw6x3PH4pbBhTbg/ji/ZC+awf7HW0WTSYs9Xr4gm3pC3t+2tj91PW4XxttaSIGTtz0lTuj+xz4mZuavO7YrP/nnIbP0HJIpw4znex8+frC88Gd4OD7POK4eYos4f+2fdpi7KecjdL2Vu/qp5j+71or/mrTsUbi2cYe4paWK0zjL9Ez46Fik3+pj25KdyXbl40NNZdNku+yySR/o8e57lI2kyea7SSktcWdZKFIfBF65mJ7u2rKVg6g6T2ZaaqfnFpVuVmliYKouyGEhWh5Uy4aE9+IiyCOfVgSeZq9q6aDrhps71ayfNqkrXfy2aU4iys8P++PMD+8+7P9+z03fvP/z+9jf2+t1vvx+zVyfvT9QAXiajNr91xRSNxQGLgmQi7c+uEj8YsnSKGDE3GiaTF88fKyAu+l7gLGVmt8PO1QeXkMez0GdTN4z4y0ngxm1XDPlbyaNc+uw8/UypM4unaEtm500oAv76CDpV3+xKTwWosl3mjyKbBTqgAzqgAzqgAzqgAzqgAzqgs/F01lU/BKOQj8AGbMAGbMAGbMAGbMAGbMAGbMAmn82aTpJgI3SPQAd0QAd0QAd0QAd0QAd0QAd0QKcMHXUNsPQXtkzTC0zBFEzBFEzBFEzBFEzBFEzBFEzBFEw3g2mhmGLKNBNHBFMwBVMwBVMwBVMwBVMwBVMwBVMwBdPNYKqlwJqyzhRVwRqswRqswRqswRqswRqswRqswRqswRqsH5H1gtYodG/ahWC3VuzFE3566U65FfPbuP3sVTALo2Iad+t3fuBXUx668SzkrP1yS2AUgOzssKPRiLksxWI3XnzJouCKs1Gv4M7oemy506k4UKQlrLe2Cm5YFMuN4zA7QmbQ1bxJHPjiqN8UxXfi3BVBb9v1h5dB2Lo/7EQT4yLw4+0b7o0vY4FxHkxG6hjZ03l7cvzL9tH2h0seXgVR7MbslMfTwEuAX3E39vzxs6285/ViJxqG3jT+WXrNi52Rd/1wtfQeOViCxbzRYWso3Pk4ab/r+Tw8c5wWSzvlsDXyounEvXvu+eI8nO3zSTD88lNLzi8BzZrA4rtpcr/ol53P7rWbfZp7pyjpIT3XY3a4OIvH5zen1+N264d1jh22K462Sf4pjKSlA10+/n1K1DdSfrJzVO1eegbYUAw/4sSnTO1v5bypHCSHDKlHhrRLhtQnQxqQIe2RIe2TIR2QIa0cvmkIReflNp2b23R+btM5uk3n6Tadq9t0vm7TObtN5+0Onbc7hGM6nbc7dN7uaHr7uvCSYgYM+UgDKKev9IByekoPKKef9IByxgQ9oJwRQQ8oZzzQA8oZDfSAcsYCPaC8xKeJRObbeWlPE4nMu/OSniYSmX/npTxNJDIPz0t4mkhkPp6X7jSR6MZvMh/Py3WaSDo+viZ8oZjmhDaGBlJON2ki5XSTJlJON2ki5QwFmkg5Q4EmUs5QoImUMxRoIuUMBZpIeflOF4rOy/Myni4UnZ/n5TxdKDpPz8t6ulB0vp6X93Sh6Lw9L/PpQhGO6XTenpf8dKEKvR2H0eMw+jmQwm04jH6t4DB6FVo4jB6H0ZcpOIxeFBxGj8Po04LD6POvxGH0xQCi4DD6zTizEXRAB3RAB3RAB3RAB3RAB3RAZ+PpPLGjHMEGbMAGbMAGbMAGbMAGbMAGbDaHzdM6sxF0QAd0QAd0QAd0QAd0QAd0QOdJ0XlEcbajYexde/Hda37NJ6z9b8izPUV5tvlD2gwltt4GKLH1alNi61rdPokQmxFQjwpolwqoTwU0oALaowLapwI6oAJa2ZdvhkTm2zaZc9tk3m2TubdN5t82mYPbZB5uk7m4TebjDpmPO3TjN5mPO2Q+7uj5uLri2ipWecE1Exx5L5WXWzPBkY8C5cXWTHDkI0B5qTUTHHn0GwitGQFReXROejNQWTMConLqnNxmILFmBETl1zmJzUBfzWhkpPLsnKxmIK5mBETl2Tkprbyy2iqOgbCaEZC8iwxk1YyA5MFvIKpmBCQPfgNJNSMgefCbCKqZIZH5dk5mM1FTM0Mic++c5GYipWaGRObhOfnNREfNbKwk8/GcFGciomaGRObjOVkOCmpQUIOC2hpDKKiJAgU1KKhBQS2nQEENCmparYKC2op9jeuhoLZcoKB2XypYsPXEhAZAB3RAB3RAB3RAB3RAB3RAB3Q2ns4T0x8AG7ABG7ABG7ABG7ABG7ABG7DZHDbfje4B6IAO6IAO6IAO6IAO6IAO6IBOeXuPoKAGwbQnJZh2Orzko1nSy2I7VMRjZnc3QzZtdwNk03Zrk00bpJtCy0rcUAH1qIB2qYD6VEADKqA9KqB9KqADKqCV3fdmSGS+bZM5t03m3TaZe9tk/m2TObhN5uE2mYvbZD7ukPm4Qzd+k/m4Q+bjjp6Pq8umrWKVl00zwZH3UnnZNBMc+ShQXjbNBEc+ApSXTTPBkUe/gWyaERCVR+ekNwPZNCMgKqfOyW0GsmlGQFR+nZPYDGTTjEZGKs/OyWoGsmlGQFSenZPSysumreIYyKYZAcm7yEA2zQhIHvwGsmlGQPLgN5BNMwKSB7+JbJoZEplv52Q2E9k0MyQy985JbiayaWZIZB6ek99MZNPMxkoyH89JcSayaWZIZD6ek+UgmwbZNMimrTGEbJookE2DbBpk03IKZNMgm6bVKsimrdjXuB6yacsFsmn3pYJVWk9MXQB0QAd0QAd0QAd0QAd0QAd0QGfj6Twx0QGwARuwARuwARuwARuwARuwAZvNYfPdiB2ADuiADuiADuiADuiADuiADuiUtwfZtHmBbNq9bJq9GbJp/Q2QTevXJpvWtRwS1TQTnB4Rzi4RTp8IZ0CEs0eEs0+Ec0CEs7Lp3giIyqNtKpe2qXzapnJqm8qrbSq3tqn82qZybJvKsx0qz3bIxmoqz3aoPNvR8mx1ebQVqPLqaAYw0h4qr41mACON+/LKaAYw0pgvr4tmACONdwNVNBMcIj+WpzEDSTQTHCJXlucwAz00Exwib5YnMAMxNJNxkMif5dnLQAnNBIfIn+Wpq7wM2gqMgQqaCY60eww00ExwpOFuoIBmgiMNdwP9MxMcabibqJ8ZAVF5tDyDmUifGQFRObU8iZnonhkBUfm1PI+ZiJ4ZjYxUni1PZSaKZ0ZAVJ4tz2aQO4PcGeTO1hhC7kwUyJ1B7gxyZzkFcmeQO9NqFeTOVuxrXA+5s+UCubP7UsHqqiemCgA6oAM6oAM6oAM6oAM6oAM6oLPxdJ6YWADYgA3YgA3YgA3YgA3YgA3YgM3msPluRApAB3RAB3RAB3RAB3RAB3RAB3TK24Pc2bxA7uxe7szZDLmzwQbInQ1qlDvr9on0zgyAelRAu1RAfSqgARXQHhXQPhXQARXQN9vtTZDIfNsmc26bzLttMve2yfzbJnNwm8zDbTIXt8l83CHzcYdu/CbzcYfMxx09H9eRQVvGMtFBK48j7yUTJbTyOPJRwEQLrTyOfAQwUUMrjyOPfiM9NAMgKo/OSW9GkmgGQFROnZPbjFTRDICo/DonsRkJoxmMjFSenZPVjLTRDICoPDsnpZnIoy3jGOmjGQDJu8hIIc0ASB78RhppBkDy4DdSSTMAkge/mU6aCRKZb+dkNjOpNBMkMvfOSW5mamkmSGQenpPfzATTTMZKMh/PSXFmmmkmSGQ+npPlIJsG2TTIpq0xhGyaKJBNg2waZNNyCmTTIJum1SrIpq3Y17gesmnLBbJp96WCVVpPTF0AdEAHdEAHdEAHdEAHdEAHdEBn4+k8MdEBsAEbsAEbsAEbsAEbsAEbsAGbzWHz3YgdgA7ogA7ogA7ogA7ogA7ogA7olLcH2bR5gWzavWxabzNk0/Y2QDZtrzbZtEG6KbSsxA0VUI8KaJcKqE8FNKAC2qMC2qcCOqACWtl9b4ZE5ts2mXPbZN5tk7m3TebfNpmD22QebpO5uE3m4w6Zjzt04zeZjztkPu7o+bi6bNoqVnnZNBMceS+Vl00zwZGPAuVl00xw5CNAedk0Exx59BvIphkBUXl0TnozkE0zAqJy6pzcZiCbZgRE5dc5ic1ANs1oZKTy7JysZiCbZgRE5dk5Ka28bNoqjoFsmhGQvIsMZNOMgOTBbyCbZgQkD34D2TQjIHnwm8immSGR+XZOZjORTTNDInPvnORmIptmhkTm4Tn5zUQ2zWysJPPxnBRnIptmhkTm4zlZDrJpkE2DbNoaQ8imiQLZNMimQTYtp0A2DbJpWq2CbNqKfY3rIZu2XCCbdl8qWKX1xNQFQAd0QAd0QAd0QAd0QAd0QAd0Np7OExMdABuwARuwARuwARuwARuwARuw2Rw2343YAeiADuiADuiADuiADuiADuiATnl7kE2bF8im3cum7W6GbNr+Bsim7dcmm9a1HBLVNBOcHhHOLhFOnwhnQISzR4SzT4RzQISzsuneCIjKo20ql7apfNqmcmqbyqttKre2qfzapnJsm8qzHSrPdsjGairPdqg829HybHV5tBWo8upoBjDSHiqvjWYAI4378spoBjDSmC+vi2YAI413A1U0ExwiP5anMQNJNBMcIleW5zADPTQTHCJvlicwAzE0k3GQyJ/l2ctACc0Eh8if5amrvAzaCoyBCpoJjrR7DDTQTHCk4W6ggGaCIw13A/0zExxpuJuonxkBUXm0PIOZSJ8ZAVE5tTyJmeieGQFR+bU8j5mInhmNjFSeLU9lJopnRkBUni3PZpA7g9wZ5M7WGELuTBTInUHuDHJnOQVyZ5A702oV5M5W7GtcD7mz5QK5s/tSweqqJ6YKADqgAzqgAzqgAzqgAzqgAzqgs/F0nphYANiADdiADdiADdiADdiADdiAzeaw+W5ECkAHdEAHdEAHdEAHdEAHdEAHdMrbg9zZvEDu7F7urL8ZcmcHGyB3dlCj3Fm3T6R3ZgDUowLapQLqUwENqID2qID2qYAOqIC+2W5vgkTm2zaZc9tk3m2TubdN5t82mYPbZB5uk7m4TebjDpmPO3TjN5mPO2Q+7uj5uI4M2jKWiQ5aeRx5L5kooZXHkY8CJlpo5XHkI4CJGlp5HHn0G+mhGQBReXROejOSRDMAonLqnNxmpIpmAETl1zmJzUgYzWBkpPLsnKxmpI1mAETl2TkpzUQebRnHSB/NAEjeRUYKaQZA8uA30kgzAJIHv5FKmgGQPPjNdNJMkMh8OyezmUmlmSCRuXdOcjNTSzNBIvPwnPxmJphmMlaS+XhOijPTTDNBIvPxnCwH2TTIpkE2bY0hZNNEgWwaZNMgm5ZTIJsG2TStVkE2bcW+xvWQTVsukE27LxWs0npi6gKgAzqgAzqgAzqgAzqgAzqgAzobT+eJiQ6ADdiADdiADdiADdiADdiADdhsDpvvRuwAdEAHdEAHdEAHdEAHdEAHdECnvD3Ips0LZNPuZdMGGyGb1us+fdm0hGNdsmmDdFNoWYkbKqAeFdAuFVCfCmhABbRHBbRPBXRABbSy+94Micy3bTLntsm82yZzb5vMv20yB7fJPNwmc3GbzMcdMh936MZvMh93yHzc0fNxddm0VazysmkmOPJeKi+bZoIjHwXKy6aZ4MhHgPKyaSY48ug3kE0zAqLy6Jz0ZiCbZgRE5dQ5uc1ANs0IiMqvcxKbgWya0chI5dk5Wc1ANs0IiMqzc1Jaedm0VRwD2TQjIHkXGcimGQHJg99ANs0ISB78BrJpRkDy4DeRTTNDIvPtnMxmIptmhkTm3jnJzUQ2zQyJzMNz8puJbJrZWEnm4zkpzkQ2zQyJzMdzshxk0yCbBtm0NYaQTRMFsmmQTYNsWk6BbBpk07RaBdm0Ffsa10M2bblANu2+VLBK64mpC4AO6IAO6IAO6IAO6IAO6IAO6Gw8nScmOgA2YAM2YAM2YAM2YAM2YAM2YLM5bL4bsQPQAR3QAR3QAR3QAR3QAR3QAZ3y9iCbNi+QTbuXTdvbDNk0ewNk0+zaZNO6lkOimmaC0yPC2SXC6RPhDIhw9ohw9olwDohwVjbdGwFRebRN5dI2lU/bVE5tU3m1TeXWNpVf21SObVN5tkPl2Q7ZWE3l2Q6VZztanq0uj7YCVV4dzQBG2kPltdEMYKRxX14ZzQBGGvPlddEMYKTxbqCKZoJD5MfyNGYgiWaCQ+TK8hxmoIdmgkPkzfIEZiCGZjIOEvmzPHsZKKGZ4BD5szx1lZdBW4ExUEEzwZF2j4EGmgmONNwNFNBMcKThbqB/ZoIjDXcT9TMjICqPlmcwE+kzIyAqp5YnMRPdMyMgKr+W5zET0TOjkZHKs+WpzETxzAiIyrPl2QxyZ5A7g9zZGkPInYkCuTPInUHuLKdA7gxyZ1qtgtzZin2N6yF3tlwgd3ZfKlhd9cRUAUAHdEAHdEAHdEAHdEAHdEAHdDaezhMTCwAbsAEbsAEbsAEbsAEbsAEbsNkcNt+NSAHogA7ogA7ogA7ogA7ogA7ogE55e5A7mxfInS3kznqboXbmbIDamVOj2lm3TyR3ZgDUowLapQLqUwENqID2qID2qYAOqIC+2W1vgkTm2zaZc9tk3m2TubdN5t82mYPbZB5uk7m4TebjDpmPO3TjN5mPO2Q+7uj5uI4K2jKWiQxaeRx5L5kIoZXHkY8CJlJo5XHkI4CJGFp5HHn0G8mhGQBReXROejNSRDMAonLqnNxmJIpmAETl1zmJzUgXzWBkpPLsnKxmJI1mAETl2TkpzUQdbRnHSB7NAEjeRUYCaQZA8uA3kkgzAJIHv5FImgGQPPjNZNJMkMh8OyezmSmlmSCRuXdOcjMTSzNBIvPwnPxmppdmMlaS+XhOijOTTDNBIvPxnCwH1TSopkE1bY0hVNNEgWoaVNOgmpZToJoG1TStVkE1bcW+xvVQTVsuUE27LxUs0npi4gKgAzqgAzqgAzqgAzqgAzqgAzobT+eJaQ6ADdiADdiADdiADdiADdiADdhsDpvvRusAdEAHdEAHdEAHdEAHdEAHdECnvD2ops0LVNMWqmm7m6Ga1tsA1bRebappg3RPaFmFGyqgHhXQLhVQnwpoQAW0RwW0TwV0QAW0svneDInMt20y57bJvNsmc2+bzL9tMge3yTzcJnNxm8zHHTIfd+jGbzIfd8h83NHzcXXVtFWs8qppJjjyXiqvmmaCIx8FyqummeDIR4DyqmkmOPLoN1BNMwKi8uic9GagmmYEROXUObnNQDXNCIjKr3MSm4FqmtHISOXZOVnNQDXNCIjKs3NSWnnVtFUcA9U0IyB5FxmophkByYPfQDXNCEge/AaqaUZA8uA3UU0zQyLz7ZzMZqKaZoZE5t45yc1ENc0MiczDc/KbiWqa2VhJ5uM5Kc5ENc0MiczHc7IcVNOgmgbVtDWGUE0TBappUE2DalpOgWoaVNO0WgXVtBX7GtdDNW25QDXtvlSwSOuJiQuADuiADuiADuiADuiADuiADuhsPJ0npjkANmADNmADNmADNmADNmADNmCzOWy+G60D0AEd0AEd0AEd0AEd0AEd0AGd8vagmjYvUE1bqKb1N0M1bXcDVNN2a1NN61oOiWiaCU6PCGeXCKdPhDMgwtkjwtknwjkgwlnZc28EROXRNpVL21Q+bVM5tU3l1TaVW9tUfm1TObZN5dkOlWc7ZGM1lWc7VJ7taHm2ujraClR5cTQDGGkPlZdGM4CRxn15YTQDGGnMl5dFM4CRxruBKJoJDpEfy9OYgSKaCQ6RK8tzmIEcmgkOkTfLE5iBFprJOEjkz/LsZSCEZoJD5M/y1FVeBW0FxkAEzQRH2j0GEmgmONJwNxBAM8GRhruB/JkJjjTcTcTPjICoPFqewUyUz4yAqJxansRMZM+MgKj8Wp7HTDTPjEZGKs+WpzITwTMjICrPlmczqJ1B7QxqZ2sMoXYmCtTOoHYGtbOcArUzqJ1ptQpqZyv2Na6H2tlygdrZfalgcdUTEwUAHdABHdABHdABHdABHdABHdDZeDpPTCsAbMAGbMAGbMAGbMAGbMAGbMBmc9h8NxoFoAM6oAM6oAM6oAM6oAM6oAM65e1B7WxeoHa2UDsbbIbaWX8D1M76NaqddftEcmcGQD0qoF0qoD4V0IAKaI8KaJ8K6IAK6Jvd9iZIZL5tkzm3TebdNpl722T+bZM5uE3m4TaZi9tkPu6Q+bhDN36T+bhD5uOOno/rqKAtY5nIoJXHkfeSiRBaeRz5KGAihVYeRz4CmIihlceRR7+RHJoBEJVH56Q3I0U0AyAqp87JbUaiaAZAVH6dk9iMdNEMRkYqz87JakbSaAZAVJ6dk9JM1NGWcYzk0QyA5F1kJJBmACQPfiOJNAMgefAbiaQZAMmD30wmzQSJzLdzMpuZUpoJEpl75yQ3M7E0EyQyD8/Jb2Z6aSZjJZmP56Q4M8k0EyQyH8/JclBNg2oaVNPWGEI1TRSopkE1DappOQWqaVBN02oVVNNW7GtcD9W05QLVtPtSwSKtJyYuADqgAzqgAzqgAzqgAzqgAzqgs/F0npjmANiADdiADdiADdiADdiADdiAzeaw+W60DkAHdEAHdEAHdEAHdEAHdEAHdMrbg2ravEA1baGatrcZqmmDDVBNG9SmmjZI94SWVbihAupRAe1SAfWpgAZUQHtUQPtUQAdUQCub782QyHzbJnNum8y7bTL3tsn82yZzcJvMw20yF7fJfNwh83GHbvwm83GHzMcdPR9XV01bxSqvmmaCI++l8qppJjjyUaC8apoJjnwEKK+aZoIjj34D1TQjICqPzklvBqppRkBUTp2T2wxU04yAqPw6J7EZqKYZjYxUnp2T1QxU04yAqDw7J6WVV01bxTFQTTMCkneRgWqaEZA8+A1U04yA5MFvoJpmBCQPfhPVNDMkMt/OyWwmqmlmSGTunZPcTFTTzJDIPDwnv5moppmNlWQ+npPiTFTTzJDIfDwny0E1DappUE1bYwjVNFGgmgbVNKim5RSopkE1TatVUE1bsa9xPVTTlgtU0+5LBYu0npi4AOiADuiADuiADuiADuiADuiAzsbTeWKaA2ADNmADNmADNmADNmADNmADNpvD5rvROgAd0AEd0AEd0AEd0AEd0AEd0ClvD6pp8wLVtIVq2v5mqKbtbYBq2l5tqmldyyERTTPB6RHh7BLh9IlwBkQ4e0Q4+0Q4B0Q4K3vujYCoPNqmcmmbyqdtKqe2qbzapnJrm8qvbSrHtqk826HybIdsrKbybIfKsx0tz1ZXR1uBKi+OZgAj7aHy0mgGMNK4Ly+MZgAjjfnysmgGMNJ4NxBFM8Eh8mN5GjNQRDPBIXJleQ4zkEMzwSHyZnkCM9BCMxkHifxZnr0MhNBMcIj8WZ66yqugrcAYiKCZ4Ei7x0ACzQRHGu4GAmgmONJwN5A/M8GRhruJ+JkREJVHyzOYifKZERCVU8uTmInsmREQlV/L85iJ5pnRyEjl2fJUZiJ4ZgRE5dnybAa1M6idQe1sjSHUzkSB2hnUzqB2llOgdga1M61WQe1sxb7G9VA7Wy5QO7svFSyuemKiAKADOqADOqADOqADOqADOqADOhtP54lpBYAN2IAN2IAN2IAN2IAN2IAN2GwOm+9GowB0QAd0QAd0QAd0QAd0QAd0QKe8PaidzQvUzhZqZweboXa2vwFqZ/u1qZ3Zu12ru1TsXRLxM0LYXjWwu9XA9quBHVQDu1cN7H41sAfVwK7s9afErSjO7IoCza4o0uyKQs2uKNbsioLNrija7IrCza4o3pyK4s2pKq9VFG9ORfHmmMSbuqpcHnJ5kTk6VNXeLS9BR4eqOpKVF6ijQ1UdxcrL19Ghqo5gBuJ2hLDVRJfydMFACY8QtpoAU54rGMjmEcJWE2PKEwUDjT3CrFBNlCnPEgwE+Qhhq4ky5SlCefW+PFQDMT9CWNWuNZD6I4RVHcAMhAAJYVUHMAOZQEJY1QHMRESQEreiOFOeKZgoDlLiVhRqypMFE3lCStyKok15vmCiZUiZJyqKN+Upg4nwISVuRfGmPGuASiJUEqGSuMYQKomiQCURKolQScwpUEmESqJWq6CSuGJf43qoJC4XqCTelwoWZT4xMRHQAR3QAR3QAR3QAR3QAR3QAZ2Np/PENEbABmzABmzABmzABmzABmzABmw2h813o20COqADOqADOqADOqADOqADOqBT3t4jqCR+4FdTHrrxLOSs/XILoolPSzSRh9fekLN/u8LzXgfBlIkHJtY573ZfboaA4sEGCCge1CegKP4uq9REhNMjwtklwukT4QyIcPaIcPaJcA6IcFYFBkyAqDzapnJpm8qnbSqntqm82qZya5vKr20qx7apPNuh8myHbKym8myHyrMdLc/WEPZbhjJQ8isPI+0hA62+8jDSuDdQ4ysPI415A7298jDSeDdR1DPAIfJjeRozEckzwCFyZXkOM9G9M8Ah8mZ5AjORsjMYB4n8WZ69TNTpDHCI/FmeugwE55ZhTBTmDHCk3WOiIWeAIw13E5U4AxxpuJvowBngSMPdSOnNBIjKo+UZzEi8zQSIyqnlScxIj80EiMqv5XnMSGLNZGSk8mx5KjNSTTMBovJseTZbA/oj9ILQi++YzbZZ+3TmbwlJqsH2f7v+dtfeTv/+lQ+3e7YszXVXvugdHe3uHhwQmHCqN9Gr3sRu9Sb61ZsYVG9ir3oT+9WbOKjexEpmr8pGDfFt1xDgdg0RbtcQ4nYNMW7XEOR2DVFu1xDmdg1x7tQQ504debyGOHdqiHOnXJw7qQ03ltnoqk2rej3H2R8QmJA/DTIT8odBZkL+LMhMyIdcMhPyEZfMhHzAJTMhH2/JTMiHWzITOdMqOhs1xHfOtIrORg0RnjOtorNRQ4znTKvobNQQ5TnTKjobNcR5zrSKzkYdebyGOM+ZVtHZKBfnPWHjZehJbDgHatMq297b6/UITMifBpkJ+cMgMyF/FmQm5EMumQn5iEtmQj7gkpmQj7dkJuRro8hM5CwIpLMhX1FFZ0O+2IrOhnwdFp0N+RItOhvydYl0NuRLFulsyFcz0tmQL3Sks1FDnOdMq+hs1JHHa0jkOdMqOhvlUvmusPHhciazsa82rTpISv8XAhPyp0FmQv4wyEzInwWZCfm0isyEfFpFZkI+rSIzIZ9WkZmQD7dkJnKmVXQ25NMqOhvyaRWdDfm0is6GfFpFZ0M+raKzIZ9W0dmQT6vobMinVXQ2aojznGkVnY068ngNiTxnWkVno1wq7wsb/+YjmY09tWnVr78eH+/tEZiQPw0yE/KHQWZC/izITMinVWQm5NMqMhPyaRWZCfm0isyEfLglM5EzraKzIZ9W0dmQT6vobMinVXQ25NMqOhvyaRWdDfm0is6GfFpFZ0M+raKzUUOc50yr6GzUkcdrSOQ50yo6G+VS+SCdus24zMZAbVp1fDwYkJiQPw0yE/KHQWZC/izITMinVWQm5NMqMhPyaRWZCfm0isyEfLglM5EzraKzIZ9W0dmQT6vobMinVXQ25NMqOhvyaRWdDfm0is6GfFpFZ0M+raKzUUOc50yr6GzUkcdrSOQ50yo6G+VS+Z6w8SaQLYt3+mrTqv19x+n3CUzInwaZCfnDIDMhfxZkJuTTKjIT8mkVmQn5tIrMhHxaRWYiT3eKyESu2BqVjTy1KiobeUJWVDbyNK6obOTJX1HZyNN8o7KRJwdHZSNPKY7KRp6IHJWNGuI8Z1pFZ6OOPF5DIs+ZVtHZKE7ln1QUXueazOyQ+fxmISCb6sa2o+txJ1WALZSKXQg7Rzz+JZj5o6jd73aYbfc7rCf+cvpqcrO3CY17UerR6NiN+TgI745uvSiTRb5vv4J6dALwLhzx8P1MqBQr3yh43K3yeMPdaBbyjIYQWp73e8Xy3KhGNapRjWpUoxrVqEY1qlGNalSjGtWoRjWqUY1qVKMa1ahGNapRjWpUoxrVqEY1qlGNalSjGtWoRjWqUY1qVKMa1ahGNapRjWpUoxrVqG5U9Z0VXPMw9Eb8jSs21tpW13C/qtgaG61ujT3locej+fbaVmexgXg6CWJr4vm8cIts9NA+3eKdtZGVHj0/DSZu7AV+QqoVxXy6fc4vgpC31HY+v+Zj7o9WG5R91h78//bOtqltXA3D38+v0HpnijObmDjhvc3u0BDazrSlA3R2tgzDOLGSGBw7Y9lApsN/P5Jjs0nBjeSXtjnn1geglnTrkvQ8koqch2adtMUnl5vig8zii+bSYSjAVkinssbViIY9LxTjw5sYRt4gJtVr5OsKiZSQPta+WPlZbpGcIdHDscMMFs+KXEMiLVQy+Pj1rMFY/xdYVS3FFx8d5+yJ7tXUZ44QPOKPZXqTJiHzDFXg36khpViOZ1PhDw2zrlg7Tdd5Kw4d6gp705MxnfvJKPCjKbXJixfkt+T5vXE1tljy+XfhYLXF3NmzuXxADGs0OhZtGC71RuGYvCIt8hfRDl1XIwfLJZjrDKjeMGsXzcvaSn970hM/IPo170rzJbnmzSSmmrQrnv3BVxz1CRJJmHGid3F9adzQGel0OvPBy6cYqybTfq3a1TT1A2rd5Kn8oFhHtbwYr6R3HWHWwhgSS4kDORhXFmPOyKN2V4SIYBfxSF7mG8p0oqcRG+t554JP6cF8PvN7kuseyPTSECXztsLCwL+hcu3My+ZtyZ9aAyecyTWVFM7dq7iJtKm8KulCsrys5HEP5cVHpNSdlxce0iCmqpqKu8mzPtTjXVWq/MOqM4VIm5vk0+dz8s/J51NydnJ6/u7jG/L+5M27LnnbO+3JCRzzVZveW+KIRkKfMD8IiRdNuB0MSBzShBGLDfjhxfFGEorp2AudhZ3ZqpO+/OIS0DAKPDK1AkaPXd8KdUss+TU+lQvP+vEzqcFcfURbaDbpwirhh2ojvTyeP2N3j51d37Dp0IrckEwDn69hdKNONn7f2+t2e72NigPPAAc4wAEOcIADHOAABzjAAc7/Jg5h0YT/F5jYVDwktjUTRAG1QQMa0IAGNKABDWhAAxrQgAY036e5i1/N+oam70YUOMABDnCAAxzgAAc4wAEOcICTB+fx7waa4u8GnkVZfzewbcY3bIeHW1v7+yAFKUhBClKQghSkIAUpSEEKUpCCdD1IWzGpFWaRNmPSdrvV2tsBKUhBClKQghSkIAUpSEEKUpCCFKTrQdoWpMeBk0Ha2o9JTXN3t90GKUhBClKQghSkIAUpSEEKUpCCFKTrQbolSM/HURbpXky6z9P2a5CCFKQgBSlIQQpSkIIUpCAFKUhBuh6k24L0b2pnke7GpEdH3e7uLkhBClKQghSkIAUpSEEKUpCCFKQgXQ/Snfg3ExHNIt2JSbvdnR2QghSkIAUpSEEKUpCCFKQgBSlIQboupLuC9IOfFVmwtR2T7u21WtvbIAUpSEEKUpCCFKQgBSlIQQpSkIL0h5GmKHZg3ekrxe6N0Aldeja2ptQI6X2ob7z1o4Ctxpg9rXnkTKjHHN9zKYsVVkhsbpJD2yYWiZXInROOCfMnlNjtFTXZ7ciwplPq2bom2tZqKyqkybDCMNC1e61OdpqKlWa8Uku+EgtnLp3jNSxvMPYDXl9z6VCBNtEY+l7YuKPOaBwKjb7v2vIa87k5mzY+0YBPUEiDqy8fr0xyNmONNjl2gwb/eTBuHJK3n9zBJGwwP+IT8eUj+djrvhbFQjohbfLp7As5GQxE2Y3a96b21SYbBM40/DOzzKtN27l9PjuzTrYY1yKO3dEGwu67fKgsx+Od3GpqJB6/jmY7bOpaswPHc3lWo+/6g5uXWjYfF513gYSzKa8vhnDz2rq15k+/W1OkWysQJko6xHYmU5caHr07ux3p2u9PGetkq9mMv6x0OSFrW6HFdS++aq7Vp652oNl0aEVuSKaBP3RcqtXnOVf32oFpNOvareVGVDvY2Tf2F9Lefl0biHWKK/Clp9vt9bSHupRqqxLVdiWqW5WobleiulOJ6m4lqnuVqO5Xomo2q5GtxrvMatzLrMa/zGoczKzGw8xqXMysxsfMapzMrMbLWtV4WauiPawaL2tV42WtAl5GWDSZLP3p7xwnhIDaCqKSY6smKjmyaqKS46omKrl2qYlKrlxqopLrlpqo5KqlJiq5ZqmJyh4MFFUr8SnZY4GiaiVeJXsoUFStxK9kjwSKqpV4luyBQFG1Et+SPQ4oqlazX1XiW7JnAUXVvL5153hh0WNAXxSQV5UcVkVVyWFVVJUcVkVVySVLUVVyyVJUlVyyFFUllyxFVcklS1FV9jygKluNd8meCFRlq/Ev2TOBqmw1HiZ7KlCVrcbHZM8FqrLVeJnsyUBVtqI9rBovkz0cqMoqedmlzIVDcp9IOsSjd+l9RnyNobPbUT2+kFh5c5FeSjIavvYjz2b6drNOTHO7Ttrip9a23O3HPcd4vGu17a4V0pEfzA7vHTa/1HscCombTy5wEtg0OI3EHZt0RcExW+b4QC0WBXSOIa4Jkykoepcb3yMtN3VGA4eyBJe3lEzI1PVDQ1xurWySPdfv1aTMiO1u6rtW6Pgeh9JYSKeNPh36AdXkLOk9HVHPXu7Q/Jm+w62gLSxBXIaZ4ktyVbryFjmVNa5GNOx5oRgf3sQw8gYxqV4jXyXuSgUhfax9sdI3RHKGRA/HDuN2LerJNSTSQiWDj1/PGoz1f4FV1VL85G4w0b2a+swRgkf8sUxv0iRknqEK/Ds1pBTL8WwqHLdh1hVrp+k6b8WhQ11hb3oypnM/GQV+NKU2efGC/JY8vzeuxhZL1hPhYLXF3NmzuXxADGs0OhZtGC71RuGYvCIt8hfRDl1XIwfLJZjrDKjeMGsXzcvaSn970hM/IPo170rzJbnmzSSmmrQrnv3RIab6BIkkzDjRu7i+NG4oX946nfng5VOMVZNpv1btapr6AbVu8lR+UKyjWl6MV9K7jjBrYQyJpcQbo3E1fw+I2vGbQOwiHsnLfEOZTvQ0YmM971zwKT2Yz2d+T3LdA5leGqJk3lZYGPg3VK6dedm8LflTa+CEM7mmksK5exU3kTaVVyVdSJaXlTzuobz4iJS68/LCQxrEVFVTcTd51od6vKtKlX9YdaYQaXOTfPp8Tv45+XxKzk5Oz999fEPen7x51yVve6c9OYFjvmrTe0sc0UjoE+bzg7QXTbgdDEh8RGTEYgN+eHG8kYRiOvZCZ2FntuqkL7+4BDSMAo9MrYDRY9e3Qt0SS36NT+XCs378TGowVx/RFppNurBK+OEnvK/5zQVs8lKmuFD9Ka+PAgc4wAEOcIADHOAABzjAAc7a4zx9wUUQBdQGDWhAAxrQgAY0oAENaEADGtB8n+bJK4GCRrziBxzgAAc4wAEOcIADHOAABzjA+YlREs/pZEoDK4wCSvTjGuIk/lJxEv+2hMW9pfG3w0nfoV5IxJSJuIfUjvj4N8hu83g9QiCaaxAC0fxhIRDjD57mDcFUkk67JJ2tknS2S9LZKUlntySdvZJ09kvSWYotUEioLIs2yzJpsyybNssyarMsqzbLMmuzLLs2yzJssyzLbpVl2a3S1uqyLLtVlmW3lCxbPmTfklT+IH0FZDJHKH8gvgIymX6fP9heAZlMn88fUK+ATKa/FwiaV0SnJDvO3sYKhMIrolOSKWfvYQUC3BXRKcmaszewAmHriqyDJdlz9u5VIBhdEZ2S7Dl768ofYm5JpkBQuSI6mcNTIHBcEZ1Mdy8QHK6ITqa7FwgAV0Qn092LBHkrJFSWRWfvYEVCtxUSKsuoszexIgHZCgmVZdfZ+1iRMGuFVsayLDt7KysSPK2QUFmWnb2bISTaWoREQzaykY1sZCMb2chGNrKRjWxkIxvZyEb2r5Q9M/xbGgSOTT9Y4hdVptFESPyFniAk/mNCSHylhJD4CImvkBAS/9uEkPjfJoTEV0wIiY+Q+M8mhMQHDnCAAxzgAAc4wAEOcIADHOCsQ0BJ0IAGNKABDWhAAxrQgAY0oFkfmv+bQJbAAQ5wgAMc4AAHOMABDnCAk7+9nxAS/8iZUI85vudSxhAQ/9cKiO8HN6Q3HDoDh3qD2WMY/B8bAD8p/U3O4r/Tn+ffH9WTHx6/9X17Jr6Pw4n753/+C0JGJkg="
               },
               {
                  "name" : "annual_peak_electric_demand",
                  "units" : "kW",
                  "value" : 17.362930000000002
               },
               {
                  "name" : "first_year_capital_cost",
                  "units" : "$",
                  "value" : 0
               },
               {
                  "name" : "annual_utility_cost",
                  "units" : "$",
                  "value" : 7173.4700000000003
               },
               {
                  "name" : "total_lifecycle_cost",
                  "units" : "$",
                  "value" : 121616.86
               }
            ],
            "step_warnings" : []
         }
      }
   ],
   "updated_at" : "20170710T183247Z",
   "weather_file" : "USA_CO_Denver.Intl.AP.725650_TMY3.epw"
}
